Candidata_001
     RDKit          3D

 11 11  0  0  0  0  0  0  0  0999 V2000
    2.5363    1.4413   -0.7823 O   0  0  0  0  0  0  0  0  0  0  0  0
    2.0286    0.5299   -0.1583 C   0  0  0  0  0  0  0  0  0  0  0  0
    2.7035   -0.1793    0.7600 O   0  0  0  0  0  0  0  0  0  0  0  0
    0.6089    0.1480   -0.2025 C   0  0  0  0  0  0  0  0  0  0  0  0
   -0.3209    1.1812   -0.0155 C   0  0  0  0  0  0  0  0  0  0  0  0
   -1.6837    0.8948   -0.0368 C   0  0  0  0  0  0  0  0  0  0  0  0
   -2.9385    2.2827    0.2288 Br  0  0  0  0  0  0  0  0  0  0  0  0
   -2.1296   -0.4077   -0.2527 C   0  0  0  0  0  0  0  0  0  0  0  0
   -1.2034   -1.4333   -0.4601 C   0  0  0  0  0  0  0  0  0  0  0  0
    0.1695   -1.1597   -0.4416 C   0  0  0  0  0  0  0  0  0  0  0  0
    1.3462   -2.6008   -0.8197 Br  0  0  0  0  0  0  0  0  0  0  0  0
  1  2  2  0
  2  3  1  0
  2  4  1  0
  4  5  1  0
  5  6  2  0
  6  7  1  0
  6  8  1  0
  8  9  2  0
  9 10  1  0
 10 11  1  0
 10  4  2  0
M  END
>  <Rank>  (1) 
1

>  <Score>  (1) 
0.8780

>  <Pharma_Score>  (1) 
1.0000

>  <QED>  (1) 
0.8580

>  <MW>  (1) 
279.91

>  <LogP>  (1) 
2.91

>  <PSA>  (1) 
37.3

>  <SA_Score>  (1) 
1.80

>  <HBD>  (1) 
1

>  <HBA>  (1) 
1

>  <Lip_Violations>  (1) 
0

>  <SMILES>  (1) 
O=C(O)c1cc(Br)ccc1Br

$$$$
Candidata_002
     RDKit          3D

 18 19  0  0  0  0  0  0  0  0999 V2000
   -3.1066   -2.5307   -1.1156 O   0  0  0  0  0  0  0  0  0  0  0  0
   -2.1550   -1.8002   -0.9172 C   0  0  0  0  0  0  0  0  0  0  0  0
   -0.9036   -2.1487   -1.2529 O   0  0  0  0  0  0  0  0  0  0  0  0
   -2.2255   -0.4136   -0.4228 C   0  0  0  0  0  0  0  0  0  0  0  0
   -3.3172    0.3617   -0.8388 C   0  0  0  0  0  0  0  0  0  0  0  0
   -3.4299    1.6844   -0.4110 C   0  0  0  0  0  0  0  0  0  0  0  0
   -4.8956    2.7315   -0.9838 Br  0  0  0  0  0  0  0  0  0  0  0  0
   -2.4750    2.2423    0.4395 C   0  0  0  0  0  0  0  0  0  0  0  0
   -1.3964    1.4685    0.8718 C   0  0  0  0  0  0  0  0  0  0  0  0
   -1.2646    0.1428    0.4297 C   0  0  0  0  0  0  0  0  0  0  0  0
   -0.1729   -0.6738    0.9961 C   0  0  0  0  0  0  0  0  0  0  0  0
   -0.5118   -1.5280    1.8164 O   0  0  0  0  0  0  0  0  0  0  0  0
    1.1549   -0.3964    0.6156 N   0  0  0  0  0  0  0  0  0  0  0  0
    2.1933   -1.0669    1.2558 C   0  0  0  0  0  0  0  0  0  0  0  0
    3.4928   -0.8870    0.9794 C   0  0  0  0  0  0  0  0  0  0  0  0
    3.9540    0.0663   -0.0731 C   0  0  0  0  0  0  0  0  0  0  0  0
    2.7970    0.7283   -0.7494 C   0  0  0  0  0  0  0  0  0  0  0  0
    1.5259    0.4801   -0.3996 C   0  0  0  0  0  0  0  0  0  0  0  0
  1  2  2  0
  2  3  1  0
  2  4  1  0
  4  5  1  0
  5  6  2  0
  6  7  1  0
  6  8  1  0
  8  9  2  0
  9 10  1  0
 10 11  1  0
 11 12  2  0
 11 13  1  0
 13 14  1  0
 14 15  2  0
 15 16  1  0
 16 17  1  0
 17 18  2  0
 10  4  2  0
 18 13  1  0
M  END
>  <Rank>  (2) 
2

>  <Score>  (2) 
0.8540

>  <Pharma_Score>  (2) 
1.0000

>  <QED>  (2) 
0.9130

>  <MW>  (2) 
308.13

>  <LogP>  (2) 
3.02

>  <PSA>  (2) 
57.6

>  <SA_Score>  (2) 
2.90

>  <HBD>  (2) 
1

>  <HBA>  (2) 
2

>  <Lip_Violations>  (2) 
0

>  <SMILES>  (2) 
O=C(O)c1cc(Br)ccc1C(=O)N1C=CCC=C1

$$$$
Candidata_003
     RDKit          3D

 18 18  0  0  0  0  0  0  0  0999 V2000
   -5.0400   -1.8675    0.6636 C   0  0  0  0  0  0  0  0  0  0  0  0
   -4.9104   -0.5356    1.3302 C   0  0  0  0  0  0  0  0  0  0  0  0
   -3.8122    0.2204    1.4856 C   0  0  0  0  0  0  0  0  0  0  0  0
   -2.4771   -0.0949    1.0304 C   0  0  0  0  0  0  0  0  0  0  0  0
   -1.4355    0.7240    1.2300 C   0  0  0  0  0  0  0  0  0  0  0  0
   -0.1707    0.4121    0.7917 N   0  0  0  0  0  0  0  0  0  0  0  0
    0.9141    1.2500    0.9561 C   0  0  0  0  0  0  0  0  0  0  0  0
    0.8530    2.3404    1.5210 O   0  0  0  0  0  0  0  0  0  0  0  0
    2.2457    0.7862    0.4683 C   0  0  0  0  0  0  0  0  0  0  0  0
    3.3491    1.1786    1.2513 C   0  0  0  0  0  0  0  0  0  0  0  0
    4.6559    0.8573    0.8736 C   0  0  0  0  0  0  0  0  0  0  0  0
    4.8766    0.1492   -0.3026 C   0  0  0  0  0  0  0  0  0  0  0  0
    6.6407   -0.2847   -0.8215 Br  0  0  0  0  0  0  0  0  0  0  0  0
    3.8046   -0.2395   -1.1015 C   0  0  0  0  0  0  0  0  0  0  0  0
    2.4889    0.0795   -0.7186 C   0  0  0  0  0  0  0  0  0  0  0  0
    1.4141   -0.3753   -1.6099 C   0  0  0  0  0  0  0  0  0  0  0  0
    0.4686   -1.0643   -1.2792 O   0  0  0  0  0  0  0  0  0  0  0  0
    1.6059    0.0549   -2.8658 O   0  0  0  0  0  0  0  0  0  0  0  0
  1  2  1  0
  2  3  2  3
  3  4  1  0
  4  5  2  3
  5  6  1  0
  6  7  1  0
  7  8  2  0
  7  9  1  0
  9 10  1  0
 10 11  2  0
 11 12  1  0
 12 13  1  0
 12 14  2  0
 14 15  1  0
 15 16  1  0
 16 17  2  0
 16 18  1  0
 15  9  2  0
M  END
>  <Rank>  (3) 
3

>  <Score>  (3) 
0.8360

>  <Pharma_Score>  (3) 
1.0000

>  <QED>  (3) 
0.8400

>  <MW>  (3) 
310.15

>  <LogP>  (3) 
2.97

>  <PSA>  (3) 
66.4

>  <SA_Score>  (3) 
2.70

>  <HBD>  (3) 
2

>  <HBA>  (3) 
2

>  <Lip_Violations>  (3) 
0

>  <SMILES>  (3) 
CC=CC=CNC(=O)c1ccc(Br)cc1C(=O)O

$$$$
Candidata_004
     RDKit          3D

 18 18  0  0  0  0  0  0  0  0999 V2000
    5.8686    0.3896    0.3431 O   0  0  0  0  0  0  0  0  0  0  0  0
    5.0016   -0.4635    0.5156 C   0  0  0  0  0  0  0  0  0  0  0  0
    4.2533   -1.1240   -0.6160 C   0  0  0  0  0  0  0  0  0  0  0  0
    2.7825   -0.9405   -0.4001 C   0  0  0  0  0  0  0  0  0  0  0  0
    2.0311   -0.0794   -1.0970 C   0  0  0  0  0  0  0  0  0  0  0  0
    0.6818    0.1371   -0.9426 N   0  0  0  0  0  0  0  0  0  0  0  0
   -0.1769   -0.4482   -0.0282 C   0  0  0  0  0  0  0  0  0  0  0  0
    0.0829   -1.2890    0.8223 O   0  0  0  0  0  0  0  0  0  0  0  0
   -1.5811   -0.0051   -0.1494 C   0  0  0  0  0  0  0  0  0  0  0  0
   -2.2797   -0.3084   -1.3271 C   0  0  0  0  0  0  0  0  0  0  0  0
   -3.6333    0.0177   -1.4346 C   0  0  0  0  0  0  0  0  0  0  0  0
   -4.2851    0.6343   -0.3655 C   0  0  0  0  0  0  0  0  0  0  0  0
   -6.1182    1.0706   -0.5163 Br  0  0  0  0  0  0  0  0  0  0  0  0
   -3.5982    0.9357    0.8102 C   0  0  0  0  0  0  0  0  0  0  0  0
   -2.2377    0.6147    0.9196 C   0  0  0  0  0  0  0  0  0  0  0  0
   -1.4932    1.0119    2.1277 C   0  0  0  0  0  0  0  0  0  0  0  0
   -0.3837    1.5060    2.1544 O   0  0  0  0  0  0  0  0  0  0  0  0
   -2.2107    0.7904    3.2420 O   0  0  0  0  0  0  0  0  0  0  0  0
  1  2  2  0
  2  3  1  0
  3  4  1  0
  4  5  2  3
  5  6  1  0
  6  7  1  0
  7  8  2  0
  7  9  1  0
  9 10  1  0
 10 11  2  0
 11 12  1  0
 12 13  1  0
 12 14  2  0
 14 15  1  0
 15 16  1  0
 16 17  2  0
 16 18  1  0
 15  9  2  0
M  END
>  <Rank>  (4) 
4

>  <Score>  (4) 
0.8240

>  <Pharma_Score>  (4) 
1.0000

>  <QED>  (4) 
0.8140

>  <MW>  (4) 
312.12

>  <LogP>  (4) 
1.98

>  <PSA>  (4) 
83.5

>  <SA_Score>  (4) 
2.78

>  <HBD>  (4) 
2

>  <HBA>  (4) 
3

>  <Lip_Violations>  (4) 
0

>  <SMILES>  (4) 
O=CCC=CNC(=O)c1ccc(Br)cc1C(=O)O

$$$$
Candidata_006
     RDKit          3D

 20 21  0  0  0  0  0  0  0  0999 V2000
    4.5499    2.6239    0.4785 O   0  0  0  0  0  0  0  0  0  0  0  0
    3.6679    1.8128    0.6836 C   0  0  0  0  0  0  0  0  0  0  0  0
    2.7840    1.9455    1.6872 O   0  0  0  0  0  0  0  0  0  0  0  0
    3.5119    0.5186    0.0002 C   0  0  0  0  0  0  0  0  0  0  0  0
    4.6735   -0.2362   -0.2145 C   0  0  0  0  0  0  0  0  0  0  0  0
    4.5780   -1.4930   -0.8096 C   0  0  0  0  0  0  0  0  0  0  0  0
    6.1409   -2.5188   -1.0878 Br  0  0  0  0  0  0  0  0  0  0  0  0
    3.3398   -2.0026   -1.2014 C   0  0  0  0  0  0  0  0  0  0  0  0
    2.1832   -1.2436   -1.0061 C   0  0  0  0  0  0  0  0  0  0  0  0
    2.2670    0.0219   -0.4051 C   0  0  0  0  0  0  0  0  0  0  0  0
    1.0408    0.8438   -0.3005 C   0  0  0  0  0  0  0  0  0  0  0  0
    1.0385    1.9976   -0.7071 O   0  0  0  0  0  0  0  0  0  0  0  0
   -0.0458    0.2080    0.2612 N   0  0  0  0  0  0  0  0  0  0  0  0
   -1.2587    0.9500    0.5313 C   0  0  0  0  0  0  0  0  0  0  0  0
   -2.5468   -0.2287    0.9521 P   0  0  0  0  0  0  0  0  0  0  0  0
   -2.9301   -1.1894   -0.4710 C   0  0  0  0  0  0  0  0  0  0  0  0
   -4.2019   -1.1409   -1.0337 C   0  0  0  0  0  0  0  0  0  0  0  0
   -5.2445   -0.3403   -0.5212 C   0  0  0  0  0  0  0  0  0  0  0  0
   -5.1631    0.5083    0.6030 C   0  0  0  0  0  0  0  0  0  0  0  0
   -4.0071    0.6591    1.3628 C   0  0  0  0  0  0  0  0  0  0  0  0
  1  2  2  0
  2  3  1  0
  2  4  1  0
  4  5  1  0
  5  6  2  0
  6  7  1  0
  6  8  1  0
  8  9  2  0
  9 10  1  0
 10 11  1  0
 11 12  2  0
 11 13  1  0
 13 14  1  0
 14 15  1  0
 15 16  2  0
 16 17  1  0
 17 18  2  0
 18 19  1  0
 19 20  2  0
 10  4  2  0
 20 15  1  0
M  END
>  <Rank>  (5) 
6

>  <Score>  (5) 
0.7750

>  <Pharma_Score>  (5) 
1.0000

>  <QED>  (5) 
0.8180

>  <MW>  (5) 
354.14

>  <LogP>  (5) 
2.93

>  <PSA>  (5) 
66.4

>  <SA_Score>  (5) 
4.03

>  <HBD>  (5) 
2

>  <HBA>  (5) 
2

>  <Lip_Violations>  (5) 
0

>  <SMILES>  (5) 
O=C(O)c1cc(Br)ccc1C(=O)NC[PH]1=CC=CC=C1

$$$$
Candidata_007
     RDKit          3D

  7  6  0  0  0  0  0  0  0  0999 V2000
   -2.2038    0.1450    0.8811 C   0  0  0  0  0  0  0  0  0  0  0  0
   -1.1823    0.9186    0.0621 C   0  0  0  0  0  0  0  0  0  0  0  0
    0.1841    0.3083    0.1726 C   0  0  0  0  0  0  0  0  0  0  0  0
    0.8617   -0.1932   -0.8724 C   0  0  0  0  0  0  0  0  0  0  0  0
    2.2030   -0.7894   -0.7826 C   0  0  0  0  0  0  0  0  0  0  0  0
    2.8171   -1.2442   -1.7311 O   0  0  0  0  0  0  0  0  0  0  0  0
    2.7146   -0.7954    0.4573 O   0  0  0  0  0  0  0  0  0  0  0  0
  1  2  1  0
  2  3  1  0
  3  4  2  3
  4  5  1  0
  5  6  2  0
  5  7  1  0
M  END
>  <Rank>  (6) 
7

>  <Score>  (6) 
0.7390

>  <Pharma_Score>  (6) 
1.0000

>  <QED>  (6) 
0.5260

>  <MW>  (6) 
100.12

>  <LogP>  (6) 
1.04

>  <PSA>  (6) 
37.3

>  <SA_Score>  (6) 
2.39

>  <HBD>  (6) 
1

>  <HBA>  (6) 
1

>  <Lip_Violations>  (6) 
0

>  <SMILES>  (6) 
CCC=CC(=O)O

$$$$
Candidata_008
     RDKit          3D

 15 15  0  0  0  0  0  0  0  0999 V2000
    5.0457   -1.0319    0.8688 O   0  0  0  0  0  0  0  0  0  0  0  0
    4.0575   -0.6942    0.2426 C   0  0  0  0  0  0  0  0  0  0  0  0
    4.0045   -0.7896   -1.0942 O   0  0  0  0  0  0  0  0  0  0  0  0
    2.8363   -0.1531    0.8521 C   0  0  0  0  0  0  0  0  0  0  0  0
    1.7449    0.1909    0.1488 C   0  0  0  0  0  0  0  0  0  0  0  0
    0.5110    0.7234    0.7189 C   0  0  0  0  0  0  0  0  0  0  0  0
    0.8335    2.2427    1.8276 Br  0  0  0  0  0  0  0  0  0  0  0  0
   -0.7421    0.3047    0.3743 C   0  0  0  0  0  0  0  0  0  0  0  0
   -1.9237    1.0574    0.8469 C   0  0  0  0  0  0  0  0  0  0  0  0
   -3.0738    1.0209    0.1524 C   0  0  0  0  0  0  0  0  0  0  0  0
   -4.5757    2.0023    0.6702 Br  0  0  0  0  0  0  0  0  0  0  0  0
   -3.2511    0.1591   -1.0713 C   0  0  0  0  0  0  0  0  0  0  0  0
   -2.1896   -0.9033   -1.1835 C   0  0  0  0  0  0  0  0  0  0  0  0
   -1.0363   -0.8744   -0.4861 C   0  0  0  0  0  0  0  0  0  0  0  0
    0.0296   -2.4205   -0.4768 Br  0  0  0  0  0  0  0  0  0  0  0  0
  1  2  2  0
  2  3  1  0
  2  4  1  0
  4  5  2  3
  5  6  1  0
  6  7  1  0
  6  8  2  3
  8  9  1  0
  9 10  2  0
 10 11  1  0
 10 12  1  0
 12 13  1  0
 13 14  2  0
 14 15  1  0
 14  8  1  0
M  END
>  <Rank>  (7) 
8

>  <Score>  (7) 
0.7340

>  <Pharma_Score>  (7) 
1.0000

>  <QED>  (7) 
0.7060

>  <MW>  (7) 
398.88

>  <LogP>  (7) 
4.24

>  <PSA>  (7) 
37.3

>  <SA_Score>  (7) 
4.08

>  <HBD>  (7) 
1

>  <HBA>  (7) 
1

>  <Lip_Violations>  (7) 
0

>  <SMILES>  (7) 
O=C(O)C=CC(Br)=C1C=C(Br)CC=C1Br

$$$$
Candidata_009
     RDKit          3D

 20 21  0  0  0  0  0  0  0  0999 V2000
    2.3217   -1.5555   -1.6175 O   0  0  0  0  0  0  0  0  0  0  0  0
    3.0945   -0.6717   -1.3051 C   0  0  0  0  0  0  0  0  0  0  0  0
    4.2379   -0.4425   -1.9727 O   0  0  0  0  0  0  0  0  0  0  0  0
    2.9456    0.2491   -0.1650 C   0  0  0  0  0  0  0  0  0  0  0  0
    4.0429    0.4835    0.6759 C   0  0  0  0  0  0  0  0  0  0  0  0
    3.8854    1.2842    1.8066 C   0  0  0  0  0  0  0  0  0  0  0  0
    5.3620    1.5978    2.9443 Br  0  0  0  0  0  0  0  0  0  0  0  0
    2.6478    1.8528    2.1107 C   0  0  0  0  0  0  0  0  0  0  0  0
    1.5544    1.6259    1.2717 C   0  0  0  0  0  0  0  0  0  0  0  0
    1.7033    0.8196    0.1334 C   0  0  0  0  0  0  0  0  0  0  0  0
    0.5585    0.6748   -0.7890 C   0  0  0  0  0  0  0  0  0  0  0  0
    0.6791    1.0429   -1.9510 O   0  0  0  0  0  0  0  0  0  0  0  0
   -0.5859    0.1556   -0.2162 N   0  0  0  0  0  0  0  0  0  0  0  0
   -1.7550   -0.0352   -0.9166 C   0  0  0  0  0  0  0  0  0  0  0  0
   -2.8688   -0.5534   -0.3842 C   0  0  0  0  0  0  0  0  0  0  0  0
   -3.0135   -0.9747    0.9753 C   0  0  0  0  0  0  0  0  0  0  0  0
   -4.0042   -1.4360    1.4650 C   0  0  0  0  0  0  0  0  0  0  0  0
   -5.1630   -1.6691    0.9177 C   0  0  0  0  0  0  0  0  0  0  0  0
   -5.2248   -1.2971   -0.5134 C   0  0  0  0  0  0  0  0  0  0  0  0
   -4.1350   -0.7659   -1.1364 C   0  0  0  0  0  0  0  0  0  0  0  0
  1  2  2  0
  2  3  1  0
  2  4  1  0
  4  5  1  0
  5  6  2  0
  6  7  1  0
  6  8  1  0
  8  9  2  0
  9 10  1  0
 10 11  1  0
 11 12  2  0
 11 13  1  0
 13 14  1  0
 14 15  2  3
 15 16  1  0
 16 17  2  0
 17 18  2  0
 18 19  1  0
 19 20  2  0
 10  4  2  0
 20 15  1  0
M  CHG  1  16  -1
M  END
>  <Rank>  (8) 
9

>  <Score>  (8) 
0.7260

>  <Pharma_Score>  (8) 
1.0000

>  <QED>  (8) 
0.6610

>  <MW>  (8) 
331.15

>  <LogP>  (8) 
2.85

>  <PSA>  (8) 
66.4

>  <SA_Score>  (8) 
3.89

>  <HBD>  (8) 
2

>  <HBA>  (8) 
2

>  <Lip_Violations>  (8) 
0

>  <SMILES>  (8) 
O=C(O)c1cc(Br)ccc1C(=O)NC=C1[C-]=C=CC=C1

$$$$
Candidata_010
     RDKit          3D

 11 10  0  0  0  0  0  0  0  0999 V2000
    4.5233   -0.7112    0.0830 O   0  0  0  0  0  0  0  0  0  0  0  0
    3.4591   -0.1256    0.1702 C   0  0  0  0  0  0  0  0  0  0  0  0
    3.3989    1.2100    0.2768 O   0  0  0  0  0  0  0  0  0  0  0  0
    2.1467   -0.7879    0.1697 C   0  0  0  0  0  0  0  0  0  0  0  0
    0.9808   -0.1270    0.2668 C   0  0  0  0  0  0  0  0  0  0  0  0
   -0.3693   -0.6915    0.2754 C   0  0  0  0  0  0  0  0  0  0  0  0
   -0.5596   -2.5608    0.1368 Br  0  0  0  0  0  0  0  0  0  0  0  0
   -1.4274    0.1408    0.3816 C   0  0  0  0  0  0  0  0  0  0  0  0
   -2.8350   -0.2170    0.4086 C   0  0  0  0  0  0  0  0  0  0  0  0
   -3.8688    0.6287    0.5150 C   0  0  0  0  0  0  0  0  0  0  0  0
   -3.8243    2.4770    0.6576 Br  0  0  0  0  0  0  0  0  0  0  0  0
  1  2  2  0
  2  3  1  0
  2  4  1  0
  4  5  2  3
  5  6  1  0
  6  7  1  0
  6  8  2  3
  8  9  1  0
  9 10  2  3
 10 11  1  0
M  END
>  <Rank>  (9) 
10

>  <Score>  (9) 
0.7210

>  <Pharma_Score>  (9) 
1.0000

>  <QED>  (9) 
0.6380

>  <MW>  (9) 
281.93

>  <LogP>  (9) 
2.81

>  <PSA>  (9) 
37.3

>  <SA_Score>  (9) 
3.81

>  <HBD>  (9) 
1

>  <HBA>  (9) 
1

>  <Lip_Violations>  (9) 
0

>  <SMILES>  (9) 
O=C(O)C=CC(Br)=CC=CBr

$$$$
Candidata_011
     RDKit          3D

 15 15  0  0  0  0  0  0  0  0999 V2000
    0.8415    1.8120    1.6025 O   0  0  0  0  0  0  0  0  0  0  0  0
   -0.2209    1.6164    1.0502 C   0  0  0  0  0  0  0  0  0  0  0  0
   -1.2035    2.5352    1.0715 O   0  0  0  0  0  0  0  0  0  0  0  0
   -0.6255    0.4182    0.2737 C   0  0  0  0  0  0  0  0  0  0  0  0
   -1.9378   -0.0517    0.4708 C   0  0  0  0  0  0  0  0  0  0  0  0
   -2.3858   -1.1855   -0.1983 C   0  0  0  0  0  0  0  0  0  0  0  0
   -4.1489   -1.8067    0.0779 Br  0  0  0  0  0  0  0  0  0  0  0  0
   -1.5414   -1.8673   -1.0647 C   0  0  0  0  0  0  0  0  0  0  0  0
   -0.2383   -1.4063   -1.2667 C   0  0  0  0  0  0  0  0  0  0  0  0
    0.2503   -0.2530   -0.6105 C   0  0  0  0  0  0  0  0  0  0  0  0
    1.6747    0.1663   -0.9180 C   0  0  0  0  0  0  0  0  0  0  0  0
    1.7241    1.9598   -1.6919 Br  0  0  0  0  0  0  0  0  0  0  0  0
    2.6209   -0.0010    0.1845 C   0  0  0  0  0  0  0  0  0  0  0  0
    3.4041   -0.1496    1.0822 C   0  0  0  0  0  0  0  0  0  0  0  0
    4.6456   -0.3864    2.5103 Br  0  0  0  0  0  0  0  0  0  0  0  0
  1  2  2  0
  2  3  1  0
  2  4  1  0
  4  5  1  0
  5  6  2  0
  6  7  1  0
  6  8  1  0
  8  9  2  0
  9 10  1  0
 10 11  1  0
 11 12  1  0
 11 13  1  0
 13 14  3  0
 14 15  1  0
 10  4  2  0
M  END
>  <Rank>  (10) 
11

>  <Score>  (10) 
0.7200

>  <Pharma_Score>  (10) 
1.0000

>  <QED>  (10) 
0.6070

>  <MW>  (10) 
396.86

>  <LogP>  (10) 
3.94

>  <PSA>  (10) 
37.3

>  <SA_Score>  (10) 
3.57

>  <HBD>  (10) 
1

>  <HBA>  (10) 
1

>  <Lip_Violations>  (10) 
0

>  <SMILES>  (10) 
O=C(O)c1cc(Br)ccc1C(Br)C#CBr

$$$$
Candidata_012
     RDKit          3D

 18 19  0  0  0  0  0  0  0  0999 V2000
   -0.0053   -0.9965    0.9320 O   0  0  0  0  0  0  0  0  0  0  0  0
    0.0730   -0.3439   -0.0952 C   0  0  0  0  0  0  0  0  0  0  0  0
    1.2025    0.1660   -0.7032 N   0  0  0  0  0  0  0  0  0  0  0  0
    2.5357    0.0812   -0.2680 C   0  0  0  0  0  0  0  0  0  0  0  0
    3.5153    0.6501   -1.0915 C   0  0  0  0  0  0  0  0  0  0  0  0
    4.8635    0.6101   -0.7268 C   0  0  0  0  0  0  0  0  0  0  0  0
    5.2436    0.0009    0.4659 C   0  0  0  0  0  0  0  0  0  0  0  0
    4.2756   -0.5666    1.2913 C   0  0  0  0  0  0  0  0  0  0  0  0
    2.9259   -0.5266    0.9265 C   0  0  0  0  0  0  0  0  0  0  0  0
   -1.1856   -0.0078   -0.9022 C   0  0  0  0  0  0  0  0  0  0  0  0
   -1.0300    0.3333   -2.0744 O   0  0  0  0  0  0  0  0  0  0  0  0
   -2.5444   -0.0608   -0.3043 C   0  0  0  0  0  0  0  0  0  0  0  0
   -2.7681   -0.0086    1.0769 C   0  0  0  0  0  0  0  0  0  0  0  0
   -4.0718   -0.0443    1.5803 C   0  0  0  0  0  0  0  0  0  0  0  0
   -5.1579   -0.1230    0.7095 C   0  0  0  0  0  0  0  0  0  0  0  0
   -4.9374   -0.1616   -0.6654 C   0  0  0  0  0  0  0  0  0  0  0  0
   -6.4097   -0.2596   -1.8472 Br  0  0  0  0  0  0  0  0  0  0  0  0
   -3.6408   -0.1271   -1.1770 C   0  0  0  0  0  0  0  0  0  0  0  0
  1  2  2  0
  2  3  1  0
  3  4  1  0
  4  5  2  0
  5  6  1  0
  6  7  2  0
  7  8  1  0
  8  9  2  0
  2 10  1  0
 10 11  2  0
 10 12  1  0
 12 13  2  0
 13 14  1  0
 14 15  2  0
 15 16  1  0
 16 17  1  0
 16 18  2  0
  9  4  1  0
 18 12  1  0
M  END
>  <Rank>  (11) 
12

>  <Score>  (11) 
0.7150

>  <Pharma_Score>  (11) 
0.7500

>  <QED>  (11) 
0.6990

>  <MW>  (11) 
304.14

>  <LogP>  (11) 
3.27

>  <PSA>  (11) 
46.2

>  <SA_Score>  (11) 
1.67

>  <HBD>  (11) 
1

>  <HBA>  (11) 
2

>  <Lip_Violations>  (11) 
0

>  <SMILES>  (11) 
O=C(Nc1ccccc1)C(=O)c1cccc(Br)c1

$$$$
Candidata_013
     RDKit          3D

 18 19  0  0  0  0  0  0  0  0999 V2000
   -3.7969   -0.1996    1.6753 C   0  0  0  0  0  0  0  0  0  0  0  0
   -3.0449   -0.7658    0.4713 C   0  0  0  0  0  0  0  0  0  0  0  0
   -3.7478   -0.4637   -0.8154 C   0  0  0  0  0  0  0  0  0  0  0  0
   -3.6726    0.6464   -1.5597 C   0  0  0  0  0  0  0  0  0  0  0  0
   -2.9226    1.8791   -1.2854 C   0  0  0  0  0  0  0  0  0  0  0  0
   -3.3563    2.9392   -1.7288 O   0  0  0  0  0  0  0  0  0  0  0  0
   -1.7403    1.8141   -0.6329 O   0  0  0  0  0  0  0  0  0  0  0  0
   -1.0461    0.7393   -0.0355 C   0  0  0  0  0  0  0  0  0  0  0  0
    0.4242    0.9696    0.1791 C   0  0  0  0  0  0  0  0  0  0  0  0
    0.8078    2.0209    0.6750 O   0  0  0  0  0  0  0  0  0  0  0  0
    1.2002   -0.0816   -0.2725 N   0  0  0  0  0  0  0  0  0  0  0  0
    2.6040   -0.1989   -0.2091 C   0  0  0  0  0  0  0  0  0  0  0  0
    3.1765   -1.3448   -0.7780 C   0  0  0  0  0  0  0  0  0  0  0  0
    4.5602   -1.5393   -0.7527 C   0  0  0  0  0  0  0  0  0  0  0  0
    5.3851   -0.5898   -0.1568 C   0  0  0  0  0  0  0  0  0  0  0  0
    4.8254    0.5512    0.4125 C   0  0  0  0  0  0  0  0  0  0  0  0
    3.4404    0.7460    0.3874 C   0  0  0  0  0  0  0  0  0  0  0  0
   -1.6029   -0.3681    0.4837 C   0  0  0  0  0  0  0  0  0  0  0  0
  1  2  1  0
  2  3  1  0
  3  4  2  0
  4  5  1  0
  5  6  2  0
  5  7  1  0
  7  8  1  0
  8  9  1  0
  9 10  2  0
  9 11  1  0
 11 12  1  0
 12 13  2  0
 13 14  1  0
 14 15  2  0
 15 16  1  0
 16 17  2  0
  8 18  2  0
 18  2  1  0
 17 12  1  0
M  END
>  <Rank>  (12) 
13

>  <Score>  (12) 
0.6990

>  <Pharma_Score>  (12) 
0.7500

>  <QED>  (12) 
0.8100

>  <MW>  (12) 
243.26

>  <LogP>  (12) 
2.26

>  <PSA>  (12) 
55.4

>  <SA_Score>  (12) 
3.05

>  <HBD>  (12) 
1

>  <HBA>  (12) 
3

>  <Lip_Violations>  (12) 
0

>  <SMILES>  (12) 
CC1C=CC(=O)OC(C(=O)Nc2ccccc2)=C1

$$$$
Candidata_014
     RDKit          3D

 10  9  0  0  0  0  0  0  0  0999 V2000
    2.4456    1.8369   -0.3150 O   0  0  0  0  0  0  0  0  0  0  0  0
    2.6067    0.6942    0.0643 C   0  0  0  0  0  0  0  0  0  0  0  0
    3.8286    0.2365    0.3948 O   0  0  0  0  0  0  0  0  0  0  0  0
    1.6099   -0.3661    0.2438 C   0  0  0  0  0  0  0  0  0  0  0  0
    0.3188   -0.1449   -0.0476 C   0  0  0  0  0  0  0  0  0  0  0  0
   -0.7806   -1.0947    0.0756 C   0  0  0  0  0  0  0  0  0  0  0  0
   -0.3730   -2.9341    0.2369 Br  0  0  0  0  0  0  0  0  0  0  0  0
   -2.0791   -0.7347    0.0241 C   0  0  0  0  0  0  0  0  0  0  0  0
   -2.6777    0.6541   -0.0673 C   0  0  0  0  0  0  0  0  0  0  0  0
   -3.1035    0.7603   -1.3119 O   0  0  0  0  0  0  0  0  0  0  0  0
  1  2  2  0
  2  3  1  0
  2  4  1  0
  4  5  2  3
  5  6  1  0
  6  7  1  0
  6  8  2  3
  8  9  1  0
  9 10  1  0
M  CHG  1  10  -1
M  END
>  <Rank>  (13) 
14

>  <Score>  (13) 
0.6780

>  <Pharma_Score>  (13) 
1.0000

>  <QED>  (13) 
0.5320

>  <MW>  (13) 
206.01

>  <LogP>  (13) 
0.27

>  <PSA>  (13) 
60.4

>  <SA_Score>  (13) 
3.96

>  <HBD>  (13) 
1

>  <HBA>  (13) 
2

>  <Lip_Violations>  (13) 
0

>  <SMILES>  (13) 
O=C(O)C=CC(Br)=CC[O-]

$$$$
Candidata_015
     RDKit          3D

  9  8  0  0  0  0  0  0  0  0999 V2000
   -2.0760   -1.6940   -0.6086 O   0  0  0  0  0  0  0  0  0  0  0  0
   -2.1001   -0.4975   -0.3956 C   0  0  0  0  0  0  0  0  0  0  0  0
   -3.2345    0.2175   -0.4308 O   0  0  0  0  0  0  0  0  0  0  0  0
   -0.9618    0.3731   -0.0729 C   0  0  0  0  0  0  0  0  0  0  0  0
    0.2702   -0.1558    0.0101 C   0  0  0  0  0  0  0  0  0  0  0  0
    1.5224    0.5360    0.3170 C   0  0  0  0  0  0  0  0  0  0  0  0
    1.4586    2.3899    0.6433 Br  0  0  0  0  0  0  0  0  0  0  0  0
    2.6657   -0.1757    0.3541 C   0  0  0  0  0  0  0  0  0  0  0  0
    4.5613    0.5001    0.7514 I   0  0  0  0  0  0  0  0  0  0  0  0
  1  2  2  0
  2  3  1  0
  2  4  1  0
  4  5  2  3
  5  6  1  0
  6  7  1  0
  6  8  2  3
  8  9  1  0
M  END
>  <Rank>  (14) 
15

>  <Score>  (14) 
0.6730

>  <Pharma_Score>  (14) 
1.0000

>  <QED>  (14) 
0.4830

>  <MW>  (14) 
302.89

>  <LogP>  (14) 
2.30

>  <PSA>  (14) 
37.3

>  <SA_Score>  (14) 
3.65

>  <HBD>  (14) 
1

>  <HBA>  (14) 
1

>  <Lip_Violations>  (14) 
0

>  <SMILES>  (14) 
O=C(O)C=CC(Br)=CI

$$$$
Candidata_016
     RDKit          3D

 12 11  0  0  0  0  0  0  0  0999 V2000
    3.3069   -1.2958   -0.9544 O   0  0  0  0  0  0  0  0  0  0  0  0
    3.9786   -0.3337   -0.6118 C   0  0  0  0  0  0  0  0  0  0  0  0
    3.4388    0.9168   -0.0193 C   0  0  0  0  0  0  0  0  0  0  0  0
    2.1590    1.2236    0.2455 C   0  0  0  0  0  0  0  0  0  0  0  0
    0.9831    0.4032    0.0162 C   0  0  0  0  0  0  0  0  0  0  0  0
   -0.3032    0.7157    0.2841 C   0  0  0  0  0  0  0  0  0  0  0  0
   -0.8119    2.3638    1.0437 Br  0  0  0  0  0  0  0  0  0  0  0  0
   -1.3506   -0.2580   -0.0244 C   0  0  0  0  0  0  0  0  0  0  0  0
   -2.6734   -0.1289    0.1684 C   0  0  0  0  0  0  0  0  0  0  0  0
   -3.5723   -1.2274   -0.2090 C   0  0  0  0  0  0  0  0  0  0  0  0
   -3.2702   -2.2977   -0.6991 O   0  0  0  0  0  0  0  0  0  0  0  0
   -4.8444   -0.8979    0.0643 O   0  0  0  0  0  0  0  0  0  0  0  0
  1  2  2  0
  2  3  1  0
  3  4  2  3
  4  5  1  0
  5  6  2  3
  6  7  1  0
  6  8  1  0
  8  9  2  3
  9 10  1  0
 10 11  2  0
 10 12  1  0
M  END
>  <Rank>  (15) 
16

>  <Score>  (15) 
0.6680

>  <Pharma_Score>  (15) 
1.0000

>  <QED>  (15) 
0.4540

>  <MW>  (15) 
231.05

>  <LogP>  (15) 
1.66

>  <PSA>  (15) 
54.4

>  <SA_Score>  (15) 
3.52

>  <HBD>  (15) 
1

>  <HBA>  (15) 
2

>  <Lip_Violations>  (15) 
0

>  <SMILES>  (15) 
O=CC=CC=C(Br)C=CC(=O)O

$$$$
Candidata_017
     RDKit          3D

 11 11  0  0  0  0  0  0  0  0999 V2000
   -2.7167   -0.7870    0.6384 O   0  0  0  0  0  0  0  0  0  0  0  0
   -1.9240   -1.1390   -0.7239 P   0  0  0  0  0  3  0  0  0  0  0  0
   -2.5384    0.1051   -1.5437 O   0  0  0  0  0  0  0  0  0  0  0  0
   -0.2826   -0.4300   -0.2892 C   0  0  0  0  0  0  0  0  0  0  0  0
   -0.2081    0.9063    0.1547 C   0  0  0  0  0  0  0  0  0  0  0  0
    1.0152    1.4831    0.4980 C   0  0  0  0  0  0  0  0  0  0  0  0
    1.0740    3.2776    1.0896 Br  0  0  0  0  0  0  0  0  0  0  0  0
    2.1917    0.7477    0.4104 C   0  0  0  0  0  0  0  0  0  0  0  0
    2.1423   -0.5761   -0.0242 C   0  0  0  0  0  0  0  0  0  0  0  0
    0.9172   -1.1644   -0.3714 C   0  0  0  0  0  0  0  0  0  0  0  0
    0.9875   -2.9830   -0.9355 Br  0  0  0  0  0  0  0  0  0  0  0  0
  1  2  1  0
  2  3  1  0
  2  4  1  0
  4  5  1  0
  5  6  2  0
  6  7  1  0
  6  8  1  0
  8  9  2  0
  9 10  1  0
 10 11  1  0
 10  4  2  0
M  CHG  1   2  -1
M  RAD  1   2   2
M  END
>  <Rank>  (16) 
17

>  <Score>  (16) 
0.6510

>  <Pharma_Score>  (16) 
0.7500

>  <QED>  (16) 
0.7800

>  <MW>  (16) 
299.89

>  <LogP>  (16) 
2.13

>  <PSA>  (16) 
40.5

>  <SA_Score>  (16) 
4.00

>  <HBD>  (16) 
2

>  <HBA>  (16) 
2

>  <Lip_Violations>  (16) 
0

>  <SMILES>  (16) 
O[P-](O)c1cc(Br)ccc1Br

$$$$
Candidata_018
     RDKit          3D

 20 20  0  0  0  0  0  0  0  0999 V2000
    6.3042    0.1590    0.3172 O   0  0  0  0  0  0  0  0  0  0  0  0
    6.6956    0.0592   -0.8328 C   0  0  0  0  0  0  0  0  0  0  0  0
    7.9050    0.4966   -1.2251 O   0  0  0  0  0  0  0  0  0  0  0  0
    5.9136   -0.5281   -1.8828 C   0  0  0  0  0  0  0  0  0  0  0  0
    4.9756   -1.2308   -3.1066 S   0  0  0  0  0  5  0  0  0  0  0  0
    3.4438   -1.1771   -2.2859 C   0  0  0  0  0  0  0  0  0  0  0  0
    2.9207   -2.3282   -1.5121 C   0  0  0  0  0  0  0  0  0  0  0  0
    3.8836   -3.9428   -1.4549 Br  0  0  0  0  0  0  0  0  0  0  0  0
    1.7545   -2.2473   -0.8417 C   0  0  0  0  0  0  0  0  0  0  0  0
    0.8425   -1.1244   -0.7329 C   0  0  0  0  0  0  0  0  0  0  0  0
   -0.2956   -1.1809   -0.0220 C   0  0  0  0  0  0  0  0  0  0  0  0
   -1.1919    0.0115    0.0457 C   0  0  0  0  0  0  0  0  0  0  0  0
   -0.9193    1.0353   -0.5665 O   0  0  0  0  0  0  0  0  0  0  0  0
   -2.2902   -0.2182    0.8490 N   0  0  0  0  0  0  0  0  0  0  0  0
   -3.3410    0.6796    1.1382 C   0  0  0  0  0  0  0  0  0  0  0  0
   -4.3560    0.2222    1.9902 C   0  0  0  0  0  0  0  0  0  0  0  0
   -5.4325    1.0474    2.3269 C   0  0  0  0  0  0  0  0  0  0  0  0
   -5.5052    2.3394    1.8146 C   0  0  0  0  0  0  0  0  0  0  0  0
   -4.5021    2.8032    0.9673 C   0  0  0  0  0  0  0  0  0  0  0  0
   -3.4244    1.9772    0.6303 C   0  0  0  0  0  0  0  0  0  0  0  0
  1  2  2  0
  2  3  1  0
  2  4  1  0
  4  5  3  0
  5  6  2  0
  6  7  1  0
  7  8  1  0
  7  9  2  3
  9 10  1  0
 10 11  2  3
 11 12  1  0
 12 13  2  0
 12 14  1  0
 14 15  1  0
 15 16  2  0
 16 17  1  0
 17 18  2  0
 18 19  1  0
 19 20  2  0
 20 15  1  0
M  CHG  1   5   1
M  END
>  <Rank>  (17) 
18

>  <Score>  (17) 
0.6440

>  <Pharma_Score>  (17) 
1.0000

>  <QED>  (17) 
0.3780

>  <MW>  (17) 
353.22

>  <LogP>  (17) 
2.39

>  <PSA>  (17) 
66.4

>  <SA_Score>  (17) 
3.45

>  <HBD>  (17) 
2

>  <HBA>  (17) 
2

>  <Lip_Violations>  (17) 
0

>  <SMILES>  (17) 
O=C(O)C#[S+]=CC(Br)=CC=CC(=O)Nc1ccccc1

$$$$
Candidata_019
     RDKit          3D

  7  6  0  0  0  0  0  0  0  0999 V2000
   -2.5072   -0.7101    0.8141 O   0  0  0  0  0  0  0  0  0  0  0  0
   -1.4228   -0.1948    0.6085 C   0  0  0  0  0  0  0  0  0  0  0  0
   -1.0564    0.9440    1.2181 O   0  0  0  0  0  0  0  0  0  0  0  0
   -0.4096   -0.7326   -0.3010 C   0  0  0  0  0  0  0  0  0  0  0  0
    0.7425   -0.1656   -0.5057 C   0  0  0  0  0  0  0  0  0  0  0  0
    1.8872    0.4067   -0.7027 C   0  0  0  0  0  0  0  0  0  0  0  0
    3.0608   -0.3888   -1.8777 Br  0  0  0  0  0  0  0  0  0  0  0  0
  1  2  2  0
  2  3  1  0
  2  4  1  0
  4  5  2  0
  5  6  2  0
  6  7  1  0
M  END
>  <Rank>  (18) 
19

>  <Score>  (18) 
0.6410

>  <Pharma_Score>  (18) 
1.0000

>  <QED>  (18) 
0.4640

>  <MW>  (18) 
162.97

>  <LogP>  (18) 
1.13

>  <PSA>  (18) 
37.3

>  <SA_Score>  (18) 
4.29

>  <HBD>  (18) 
1

>  <HBA>  (18) 
1

>  <Lip_Violations>  (18) 
0

>  <SMILES>  (18) 
O=C(O)C=C=CBr

$$$$
Candidata_020
     RDKit          3D

 11 10  0  0  0  0  0  0  0  0999 V2000
   -3.0992    0.5712   -0.9521 O   0  0  0  0  0  0  0  0  0  0  0  0
   -2.4213   -0.0987   -1.7054 C   0  0  0  0  0  0  0  0  0  0  0  0
   -2.9062   -0.5488   -2.8758 O   0  0  0  0  0  0  0  0  0  0  0  0
   -1.0319   -0.5386   -1.5332 C   0  0  0  0  0  0  0  0  0  0  0  0
   -0.3480   -0.2006   -0.4278 C   0  0  0  0  0  0  0  0  0  0  0  0
    1.0318   -0.5528   -0.1010 C   0  0  0  0  0  0  0  0  0  0  0  0
    2.0110   -1.5976   -1.3433 Br  0  0  0  0  0  0  0  0  0  0  0  0
    1.6675   -0.1855    1.0302 C   0  0  0  0  0  0  0  0  0  0  0  0
    1.1617    0.6043    2.1357 C   0  0  0  0  0  0  0  0  0  0  0  0
    1.8934    0.9117    3.2232 C   0  0  0  0  0  0  0  0  0  0  0  0
    1.5929    1.5785    4.2463 O   0  0  0  0  0  0  0  0  0  0  0  0
  1  2  2  0
  2  3  1  0
  2  4  1  0
  4  5  2  3
  5  6  1  0
  6  7  1  0
  6  8  2  3
  8  9  1  0
  9 10  2  3
 10 11  1  0
M  CHG  1  11  -1
M  END
>  <Rank>  (19) 
20

>  <Score>  (19) 
0.6360

>  <Pharma_Score>  (19) 
1.0000

>  <QED>  (19) 
0.4320

>  <MW>  (19) 
218.03

>  <LogP>  (19) 
0.78

>  <PSA>  (19) 
60.4

>  <SA_Score>  (19) 
4.14

>  <HBD>  (19) 
1

>  <HBA>  (19) 
2

>  <Lip_Violations>  (19) 
0

>  <SMILES>  (19) 
O=C(O)C=CC(Br)=CC=C[O-]

$$$$
Candidata_021
     RDKit          3D

 19 19  0  0  0  0  0  0  0  0999 V2000
    7.2831    0.3305    0.0084 C   0  0  0  0  0  0  0  0  0  0  0  0
    5.9874    0.1362    0.2542 C   0  0  0  0  0  0  0  0  0  0  0  0
    5.1390   -0.3158   -0.7175 O   0  0  0  0  0  0  0  0  0  0  0  0
    3.7705   -0.0593   -0.4205 C   0  0  0  0  0  0  0  0  0  0  0  0
    2.8574   -0.5120   -1.5616 C   0  0  0  0  0  0  0  0  0  0  0  0
    3.2838   -1.0410   -2.5882 O   0  0  0  0  0  0  0  0  0  0  0  0
    1.3922   -0.2891   -1.3884 C   0  0  0  0  0  0  0  0  0  0  0  0
    0.1873   -0.8097   -2.6993 Br  0  0  0  0  0  0  0  0  0  0  0  0
    0.8633    0.2580   -0.3337 C   0  0  0  0  0  0  0  0  0  0  0  0
    0.3322    0.8057    0.7209 C   0  0  0  0  0  0  0  0  0  0  0  0
   -1.1126    0.7619    1.0736 C   0  0  0  0  0  0  0  0  0  0  0  0
   -1.4452    1.2694    2.1388 O   0  0  0  0  0  0  0  0  0  0  0  0
   -1.9269    0.1498    0.1486 N   0  0  0  0  0  0  0  0  0  0  0  0
   -3.3239   -0.0374    0.2262 C   0  0  0  0  0  0  0  0  0  0  0  0
   -3.9416   -0.6843   -0.8532 C   0  0  0  0  0  0  0  0  0  0  0  0
   -5.3205   -0.9105   -0.8564 C   0  0  0  0  0  0  0  0  0  0  0  0
   -6.0963   -0.4921    0.2207 C   0  0  0  0  0  0  0  0  0  0  0  0
   -5.4920    0.1511    1.2980 C   0  0  0  0  0  0  0  0  0  0  0  0
   -4.1115    0.3776    1.3014 C   0  0  0  0  0  0  0  0  0  0  0  0
  1  2  2  0
  2  3  1  0
  3  4  1  0
  4  5  1  0
  5  6  2  0
  5  7  1  0
  7  8  1  0
  7  9  2  0
  9 10  2  0
 10 11  1  0
 11 12  2  0
 11 13  1  0
 13 14  1  0
 14 15  2  0
 15 16  1  0
 16 17  2  0
 17 18  1  0
 18 19  2  0
 19 14  1  0
M  END
>  <Rank>  (20) 
21

>  <Score>  (20) 
0.5850

>  <Pharma_Score>  (20) 
0.7500

>  <QED>  (20) 
0.4980

>  <MW>  (20) 
322.16

>  <LogP>  (20) 
2.79

>  <PSA>  (20) 
55.4

>  <SA_Score>  (20) 
3.18

>  <HBD>  (20) 
1

>  <HBA>  (20) 
3

>  <Lip_Violations>  (20) 
0

>  <SMILES>  (20) 
C=COCC(=O)C(Br)=C=CC(=O)Nc1ccccc1

$$$$
Candidata_022
     RDKit          3D

 10 10  0  0  0  0  0  0  0  0999 V2000
   -1.0378   -2.3514    1.2188 O   0  0  0  0  0  0  0  0  0  0  0  0
   -0.4593   -1.5142    0.5292 C   0  0  0  0  0  0  0  0  0  0  0  0
   -1.2091   -0.5866   -0.3943 C   0  0  0  0  0  0  0  0  0  0  0  0
   -1.0978    0.8172    0.1114 C   0  0  0  0  0  0  0  0  0  0  0  0
   -2.6982    1.6403    0.6134 Br  0  0  0  0  0  0  0  0  0  0  0  0
    0.0756    1.4598    0.1968 C   0  0  0  0  0  0  0  0  0  0  0  0
    1.3315    0.8749   -0.2102 C   0  0  0  0  0  0  0  0  0  0  0  0
    1.6964   -0.4124   -0.0671 C   0  0  0  0  0  0  0  0  0  0  0  0
    3.4141   -0.9620   -0.5912 Br  0  0  0  0  0  0  0  0  0  0  0  0
    0.9011   -1.4215    0.5320 O   0  0  0  0  0  0  0  0  0  0  0  0
  1  2  2  0
  2  3  1  0
  3  4  1  0
  4  5  1  0
  4  6  2  0
  6  7  1  0
  7  8  2  0
  8  9  1  0
  8 10  1  0
 10  2  1  0
M  END
>  <Rank>  (21) 
22

>  <Score>  (21) 
0.4810

>  <Pharma_Score>  (21) 
0.5000

>  <QED>  (21) 
0.6310

>  <MW>  (21) 
267.90

>  <LogP>  (21) 
2.45

>  <PSA>  (21) 
26.3

>  <SA_Score>  (21) 
4.11

>  <HBD>  (21) 
0

>  <HBA>  (21) 
2

>  <Lip_Violations>  (21) 
0

>  <SMILES>  (21) 
O=C1CC(Br)=CC=C(Br)O1

$$$$
Candidata_023
     RDKit          3D

 10 10  0  0  0  0  0  0  0  0999 V2000
   -1.7457   -0.3583   -0.7054 C   0  0  0  0  0  0  0  0  0  0  0  0
   -0.9460    0.0771    0.5220 C   0  0  0  0  0  0  0  0  0  0  0  0
   -0.0114   -0.9954    0.9882 C   0  0  0  0  0  0  0  0  0  0  0  0
    1.2185   -1.2696    0.5369 C   0  0  0  0  0  0  0  0  0  0  0  0
    1.9400   -0.6287   -0.5694 C   0  0  0  0  0  0  0  0  0  0  0  0
    2.7517   -1.2967   -1.2054 O   0  0  0  0  0  0  0  0  0  0  0  0
    1.7602    0.6881   -0.8219 O   0  0  0  0  0  0  0  0  0  0  0  0
    0.9040    1.6555   -0.2532 C   0  0  0  0  0  0  0  0  0  0  0  0
    1.4843    3.4328   -0.4465 Br  0  0  0  0  0  0  0  0  0  0  0  0
   -0.2850    1.4015    0.3118 C   0  0  0  0  0  0  0  0  0  0  0  0
  1  2  1  0
  2  3  1  0
  3  4  2  0
  4  5  1  0
  5  6  2  0
  5  7  1  0
  7  8  1  0
  8  9  1  0
  8 10  2  0
 10  2  1  0
M  END
>  <Rank>  (22) 
23

>  <Score>  (22) 
0.4530

>  <Pharma_Score>  (22) 
0.5000

>  <QED>  (22) 
0.5620

>  <MW>  (22) 
203.03

>  <LogP>  (22) 
1.97

>  <PSA>  (22) 
26.3

>  <SA_Score>  (22) 
4.22

>  <HBD>  (22) 
0

>  <HBA>  (22) 
2

>  <Lip_Violations>  (22) 
0

>  <SMILES>  (22) 
CC1C=CC(=O)OC(Br)=C1

$$$$
Candidata_024
     RDKit          3D

  3  2  0  0  0  0  0  0  0  0999 V2000
   -0.6446   -0.0715   -0.0537 C   0  0  0  0  0  0  0  0  0  0  0  0
    0.8392    0.0873    0.0728 C   0  0  0  0  0  0  0  0  0  0  0  0
    1.4503    1.0722   -0.3283 O   0  0  0  0  0  0  0  0  0  0  0  0
  1  2  1  0
  2  3  2  0
M  END
>  <Rank>  (23) 
24

>  <Score>  (23) 
0.3150

>  <Pharma_Score>  (23) 
0.2500

>  <QED>  (23) 
0.3550

>  <MW>  (23) 
44.05

>  <LogP>  (23) 
0.21

>  <PSA>  (23) 
17.1

>  <SA_Score>  (23) 
3.04

>  <HBD>  (23) 
0

>  <HBA>  (23) 
1

>  <Lip_Violations>  (23) 
0

>  <SMILES>  (23) 
CC=O

$$$$
