Candidata_001
     RDKit          3D

 28 29  0  0  0  0  0  0  0  0999 V2000
   -1.5909   -0.4401   -2.5824 O   0  0  0  0  0  0  0  0  0  0  0  0
   -1.5490   -0.7589   -1.4089 C   0  0  0  0  0  0  0  0  0  0  0  0
   -1.4164   -2.0421   -1.0353 O   0  0  0  0  0  0  0  0  0  0  0  0
   -1.7687    0.1481   -0.2600 C   0  0  0  0  0  0  0  0  0  0  0  0
   -2.7589    1.1268   -0.4451 C   0  0  0  0  0  0  0  0  0  0  0  0
   -3.0544    2.0219    0.5782 C   0  0  0  0  0  0  0  0  0  0  0  0
   -4.3969    3.3282    0.3262 Br  0  0  0  0  0  0  0  0  0  0  0  0
   -2.3693    1.9607    1.7869 C   0  0  0  0  0  0  0  0  0  0  0  0
   -1.3703    1.0022    1.9694 C   0  0  0  0  0  0  0  0  0  0  0  0
   -1.0445    0.0860    0.9494 C   0  0  0  0  0  0  0  0  0  0  0  0
    0.0936   -0.8853    1.1960 C   0  0  0  0  0  0  0  0  0  0  0  0
    1.3107   -0.6738    0.3213 C   0  0  0  0  0  0  0  0  0  0  0  0
    1.8598   -1.7491   -0.3925 C   0  0  0  0  0  0  0  0  0  0  0  0
    2.9926   -1.5703   -1.1883 C   0  0  0  0  0  0  0  0  0  0  0  0
    3.5954   -0.3173   -1.2726 C   0  0  0  0  0  0  0  0  0  0  0  0
    3.0691    0.7564   -0.5579 C   0  0  0  0  0  0  0  0  0  0  0  0
    1.9367    0.5792    0.2389 C   0  0  0  0  0  0  0  0  0  0  0  0
   -1.3288   -2.5172   -1.8882 H   0  0  0  0  0  0  0  0  0  0  0  0
   -3.2972    1.1792   -1.3897 H   0  0  0  0  0  0  0  0  0  0  0  0
   -2.5970    2.6577    2.5897 H   0  0  0  0  0  0  0  0  0  0  0  0
   -0.8339    0.9832    2.9171 H   0  0  0  0  0  0  0  0  0  0  0  0
   -0.2859   -1.9100    1.1114 H   0  0  0  0  0  0  0  0  0  0  0  0
    0.4332   -0.8073    2.2381 H   0  0  0  0  0  0  0  0  0  0  0  0
    1.4043   -2.7353   -0.3360 H   0  0  0  0  0  0  0  0  0  0  0  0
    3.4052   -2.4092   -1.7425 H   0  0  0  0  0  0  0  0  0  0  0  0
    4.4759   -0.1776   -1.8940 H   0  0  0  0  0  0  0  0  0  0  0  0
    3.5403    1.7338   -0.6211 H   0  0  0  0  0  0  0  0  0  0  0  0
    1.5451    1.4301    0.7919 H   0  0  0  0  0  0  0  0  0  0  0  0
  1  2  2  0
  2  3  1  0
  2  4  1  0
  4  5  1  0
  5  6  2  0
  6  7  1  0
  6  8  1  0
  8  9  2  0
  9 10  1  0
 10 11  1  0
 11 12  1  0
 12 13  2  0
 13 14  1  0
 14 15  2  0
 15 16  1  0
 16 17  2  0
 10  4  2  0
 17 12  1  0
  3 18  1  0
  5 19  1  0
  8 20  1  0
  9 21  1  0
 11 22  1  0
 11 23  1  0
 13 24  1  0
 14 25  1  0
 15 26  1  0
 16 27  1  0
 17 28  1  0
M  END
>  <Rank>  (1) 
1

>  <Score>  (1) 
0.9110

>  <Pharma_Score>  (1) 
1.0000

>  <QED>  (1) 
0.9350

>  <MW>  (1) 
291.14

>  <LogP>  (1) 
3.74

>  <PSA>  (1) 
37.3

>  <SA_Score>  (1) 
1.66

>  <HBD>  (1) 
1

>  <HBA>  (1) 
1

>  <Lip_Violations>  (1) 
0

>  <SMILES>  (1) 
O=C(O)c1cc(Br)ccc1Cc1ccccc1

$$$$
Candidata_002
     RDKit          3D

 24 24  0  0  0  0  0  0  0  0999 V2000
   -0.2796    2.4194    0.4677 O   0  0  0  0  0  0  0  0  0  0  0  0
    0.8300    1.9349    0.5798 C   0  0  0  0  0  0  0  0  0  0  0  0
    1.8537    2.6706    1.0526 O   0  0  0  0  0  0  0  0  0  0  0  0
    1.2446    0.5384    0.2602 C   0  0  0  0  0  0  0  0  0  0  0  0
    2.5993    0.2864   -0.0212 C   0  0  0  0  0  0  0  0  0  0  0  0
    3.0220   -0.9990   -0.3518 C   0  0  0  0  0  0  0  0  0  0  0  0
    4.8464   -1.3192   -0.7301 Br  0  0  0  0  0  0  0  0  0  0  0  0
    2.1118   -2.0478   -0.4119 C   0  0  0  0  0  0  0  0  0  0  0  0
    0.7657   -1.8094   -0.1346 C   0  0  0  0  0  0  0  0  0  0  0  0
    0.3117   -0.5215    0.2107 C   0  0  0  0  0  0  0  0  0  0  0  0
   -1.1647   -0.3510    0.5013 C   0  0  0  0  0  0  0  0  0  0  0  0
   -1.9559    0.0045   -0.7630 C   0  0  0  0  0  0  0  0  0  0  0  0
   -3.3967    0.3857   -0.4660 C   0  0  0  0  0  0  0  0  0  0  0  0
   -4.4501   -1.1767    0.0251 Br  0  0  0  0  0  0  0  0  0  0  0  0
    1.4524    3.5458    1.2371 H   0  0  0  0  0  0  0  0  0  0  0  0
    3.3251    1.0960    0.0094 H   0  0  0  0  0  0  0  0  0  0  0  0
    2.4363   -3.0520   -0.6729 H   0  0  0  0  0  0  0  0  0  0  0  0
    0.0642   -2.6413   -0.1870 H   0  0  0  0  0  0  0  0  0  0  0  0
   -1.3131    0.3936    1.2910 H   0  0  0  0  0  0  0  0  0  0  0  0
   -1.5471   -1.2856    0.9314 H   0  0  0  0  0  0  0  0  0  0  0  0
   -1.9159   -0.8301   -1.4747 H   0  0  0  0  0  0  0  0  0  0  0  0
   -1.4798    0.8547   -1.2665 H   0  0  0  0  0  0  0  0  0  0  0  0
   -3.8805    0.7988   -1.3557 H   0  0  0  0  0  0  0  0  0  0  0  0
   -3.4800    1.1049    0.3532 H   0  0  0  0  0  0  0  0  0  0  0  0
  1  2  2  0
  2  3  1  0
  2  4  1  0
  4  5  1  0
  5  6  2  0
  6  7  1  0
  6  8  1  0
  8  9  2  0
  9 10  1  0
 10 11  1  0
 11 12  1  0
 12 13  1  0
 13 14  1  0
 10  4  2  0
  3 15  1  0
  5 16  1  0
  8 17  1  0
  9 18  1  0
 11 19  1  0
 11 20  1  0
 12 21  1  0
 12 22  1  0
 13 23  1  0
 13 24  1  0
M  END
>  <Rank>  (2) 
2

>  <Score>  (2) 
0.8660

>  <Pharma_Score>  (2) 
1.0000

>  <QED>  (2) 
0.8620

>  <MW>  (2) 
322.00

>  <LogP>  (2) 
3.47

>  <PSA>  (2) 
37.3

>  <SA_Score>  (2) 
2.15

>  <HBD>  (2) 
1

>  <HBA>  (2) 
1

>  <Lip_Violations>  (2) 
0

>  <SMILES>  (2) 
O=C(O)c1cc(Br)ccc1CCCBr

$$$$
Candidata_003
     RDKit          3D

 18 18  0  0  0  0  0  0  0  0999 V2000
   -0.1748    3.0367    0.1307 O   0  0  0  0  0  0  0  0  0  0  0  0
   -0.5542    1.9618   -0.2945 C   0  0  0  0  0  0  0  0  0  0  0  0
   -1.6331    1.8654   -1.0860 O   0  0  0  0  0  0  0  0  0  0  0  0
    0.1442    0.6670   -0.1127 C   0  0  0  0  0  0  0  0  0  0  0  0
    1.5474    0.7424   -0.0864 C   0  0  0  0  0  0  0  0  0  0  0  0
    2.3068   -0.4109    0.0829 C   0  0  0  0  0  0  0  0  0  0  0  0
    4.1933   -0.3002    0.1053 Br  0  0  0  0  0  0  0  0  0  0  0  0
    1.6859   -1.6448    0.2377 C   0  0  0  0  0  0  0  0  0  0  0  0
    0.2915   -1.7243    0.2300 C   0  0  0  0  0  0  0  0  0  0  0  0
   -0.5064   -0.5747    0.0574 C   0  0  0  0  0  0  0  0  0  0  0  0
   -1.9994   -0.7397    0.1181 C   0  0  0  0  0  0  0  0  0  0  0  0
   -2.6619   -0.1028    1.8319 Br  0  0  0  0  0  0  0  0  0  0  0  0
   -1.9572    2.7892   -1.1505 H   0  0  0  0  0  0  0  0  0  0  0  0
    2.0398    1.7067   -0.2001 H   0  0  0  0  0  0  0  0  0  0  0  0
    2.2742   -2.5488    0.3758 H   0  0  0  0  0  0  0  0  0  0  0  0
   -0.1723   -2.6996    0.3747 H   0  0  0  0  0  0  0  0  0  0  0  0
   -2.2890   -1.7947    0.0680 H   0  0  0  0  0  0  0  0  0  0  0  0
   -2.5349   -0.2286   -0.6823 H   0  0  0  0  0  0  0  0  0  0  0  0
  1  2  2  0
  2  3  1  0
  2  4  1  0
  4  5  1  0
  5  6  2  0
  6  7  1  0
  6  8  1  0
  8  9  2  0
  9 10  1  0
 10 11  1  0
 11 12  1  0
 10  4  2  0
  3 13  1  0
  5 14  1  0
  8 15  1  0
  9 16  1  0
 11 17  1  0
 11 18  1  0
M  END
>  <Rank>  (3) 
3

>  <Score>  (3) 
0.8640

>  <Pharma_Score>  (3) 
1.0000

>  <QED>  (3) 
0.8510

>  <MW>  (3) 
293.94

>  <LogP>  (3) 
3.04

>  <PSA>  (3) 
37.3

>  <SA_Score>  (3) 
2.09

>  <HBD>  (3) 
1

>  <HBA>  (3) 
1

>  <Lip_Violations>  (3) 
0

>  <SMILES>  (3) 
O=C(O)c1cc(Br)ccc1CBr

$$$$
Candidata_004
     RDKit          3D

 29 30  0  0  0  0  0  0  0  0999 V2000
    1.4949   -0.9894    3.0793 O   0  0  0  0  0  0  0  0  0  0  0  0
    1.7581   -1.5101    2.0093 C   0  0  0  0  0  0  0  0  0  0  0  0
    2.0970   -2.8055    1.8968 O   0  0  0  0  0  0  0  0  0  0  0  0
    1.7491   -0.8031    0.7658 C   0  0  0  0  0  2  0  0  0  0  0  0
    1.7345   -0.0958   -0.4778 C   0  0  0  0  0  0  0  0  0  0  0  0
    2.5805   -0.5441   -1.4992 C   0  0  0  0  0  0  0  0  0  0  0  0
    2.6048    0.1187   -2.7243 C   0  0  0  0  0  0  0  0  0  0  0  0
    3.7495   -0.4920   -4.0994 Br  0  0  0  0  0  0  0  0  0  0  0  0
    1.7935    1.2275   -2.9440 C   0  0  0  0  0  0  0  0  0  0  0  0
    0.9475    1.6762   -1.9283 C   0  0  0  0  0  0  0  0  0  0  0  0
    0.9040    1.0222   -0.6829 C   0  0  0  0  0  0  0  0  0  0  0  0
   -0.0427    1.5389    0.3849 C   0  0  0  0  0  0  0  0  0  0  0  0
   -1.2781    0.6907    0.5966 C   0  0  0  0  0  0  0  0  0  0  0  0
   -1.5758    0.1836    1.8701 C   0  0  0  0  0  0  0  0  0  0  0  0
   -2.7202   -0.5881    2.0792 C   0  0  0  0  0  0  0  0  0  0  0  0
   -3.5849   -0.8555    1.0204 C   0  0  0  0  0  0  0  0  0  0  0  0
   -3.3075   -0.3492   -0.2474 C   0  0  0  0  0  0  0  0  0  0  0  0
   -2.1633    0.4227   -0.4583 C   0  0  0  0  0  0  0  0  0  0  0  0
    2.0469   -3.1361    2.8160 H   0  0  0  0  0  0  0  0  0  0  0  0
    3.2173   -1.4108   -1.3367 H   0  0  0  0  0  0  0  0  0  0  0  0
    1.8095    1.7473   -3.8984 H   0  0  0  0  0  0  0  0  0  0  0  0
    0.3152    2.5423   -2.1156 H   0  0  0  0  0  0  0  0  0  0  0  0
   -0.3728    2.5562    0.1351 H   0  0  0  0  0  0  0  0  0  0  0  0
    0.5171    1.6506    1.3228 H   0  0  0  0  0  0  0  0  0  0  0  0
   -0.9139    0.3823    2.7113 H   0  0  0  0  0  0  0  0  0  0  0  0
   -2.9355   -0.9790    3.0701 H   0  0  0  0  0  0  0  0  0  0  0  0
   -4.4755   -1.4562    1.1837 H   0  0  0  0  0  0  0  0  0  0  0  0
   -3.9826   -0.5548   -1.0740 H   0  0  0  0  0  0  0  0  0  0  0  0
   -1.9668    0.8104   -1.4550 H   0  0  0  0  0  0  0  0  0  0  0  0
  1  2  2  0
  2  3  1  0
  2  4  1  0
  4  5  1  0
  5  6  1  0
  6  7  2  0
  7  8  1  0
  7  9  1  0
  9 10  2  0
 10 11  1  0
 11 12  1  0
 12 13  1  0
 13 14  2  0
 14 15  1  0
 15 16  2  0
 16 17  1  0
 17 18  2  0
 11  5  2  0
 18 13  1  0
  3 19  1  0
  6 20  1  0
  9 21  1  0
 10 22  1  0
 12 23  1  0
 12 24  1  0
 14 25  1  0
 15 26  1  0
 16 27  1  0
 17 28  1  0
 18 29  1  0
M  CHG  1   4  -1
M  RAD  1   4   2
M  END
>  <Rank>  (4) 
4

>  <Score>  (4) 
0.8430

>  <Pharma_Score>  (4) 
1.0000

>  <QED>  (4) 
0.8770

>  <MW>  (4) 
303.15

>  <LogP>  (4) 
3.55

>  <PSA>  (4) 
37.3

>  <SA_Score>  (4) 
2.86

>  <HBD>  (4) 
1

>  <HBA>  (4) 
1

>  <Lip_Violations>  (4) 
0

>  <SMILES>  (4) 
O=C(O)[C-]c1cc(Br)ccc1Cc1ccccc1

$$$$
Candidata_005
     RDKit          3D

 27 28  0  0  0  0  0  0  0  0999 V2000
   -3.3011   -1.8210   -1.0707 O   0  0  0  0  0  0  0  0  0  0  0  0
   -2.2918   -1.5855   -0.4354 C   0  0  0  0  0  0  0  0  0  0  0  0
   -1.4645   -2.5617   -0.0251 O   0  0  0  0  0  0  0  0  0  0  0  0
   -1.8785   -0.2626    0.0785 C   0  0  0  0  0  0  0  0  0  0  0  0
   -2.8976    0.4992    0.6721 C   0  0  0  0  0  0  0  0  0  0  0  0
   -2.6019    1.7380    1.2312 C   0  0  0  0  0  0  0  0  0  0  0  0
   -3.9729    2.7540    2.0437 Br  0  0  0  0  0  0  0  0  0  0  0  0
   -1.3013    2.2289    1.2057 C   0  0  0  0  0  0  0  0  0  0  0  0
   -0.2896    1.4821    0.5970 C   0  0  0  0  0  0  0  0  0  0  0  0
   -0.5590    0.2334   -0.0010 C   0  0  0  0  0  0  0  0  0  0  0  0
    0.5690   -0.5302   -0.6970 C   0  0  0  0  0  0  0  0  0  0  0  0
    1.3398    0.3570   -1.6594 C   0  0  0  0  0  0  0  0  0  0  0  0
    2.6298    0.6773   -1.4827 C   0  0  0  0  0  0  0  0  0  0  0  0
    3.3691    0.2123   -0.3373 C   0  0  0  0  0  0  0  0  0  0  0  0
    2.8508   -0.6848    0.5123 C   0  0  0  0  0  0  0  0  0  0  0  0
    1.4679   -1.2585    0.3433 C   0  0  0  0  0  0  0  0  0  0  0  0
   -1.8795   -3.3828   -0.3644 H   0  0  0  0  0  0  0  0  0  0  0  0
   -3.9142    0.1124    0.7043 H   0  0  0  0  0  0  0  0  0  0  0  0
   -1.0613    3.1919    1.6496 H   0  0  0  0  0  0  0  0  0  0  0  0
    0.7206    1.8898    0.5855 H   0  0  0  0  0  0  0  0  0  0  0  0
    0.1277   -1.2994   -1.3421 H   0  0  0  0  0  0  0  0  0  0  0  0
    0.8064    0.7343   -2.5280 H   0  0  0  0  0  0  0  0  0  0  0  0
    3.1469    1.3134   -2.1955 H   0  0  0  0  0  0  0  0  0  0  0  0
    4.3746    0.5975   -0.1929 H   0  0  0  0  0  0  0  0  0  0  0  0
    3.4407   -1.0371    1.3536 H   0  0  0  0  0  0  0  0  0  0  0  0
    1.5900   -2.3037    0.0289 H   0  0  0  0  0  0  0  0  0  0  0  0
    0.9801   -1.2943    1.3255 H   0  0  0  0  0  0  0  0  0  0  0  0
  1  2  2  0
  2  3  1  0
  2  4  1  0
  4  5  1  0
  5  6  2  0
  6  7  1  0
  6  8  1  0
  8  9  2  0
  9 10  1  0
 10 11  1  0
 11 12  1  0
 12 13  2  0
 13 14  1  0
 14 15  2  0
 15 16  1  0
 10  4  2  0
 16 11  1  0
  3 17  1  0
  5 18  1  0
  8 19  1  0
  9 20  1  0
 11 21  1  0
 12 22  1  0
 13 23  1  0
 14 24  1  0
 15 25  1  0
 16 26  1  0
 16 27  1  0
M  END
>  <Rank>  (5) 
5

>  <Score>  (5) 
0.8400

>  <Pharma_Score>  (5) 
1.0000

>  <QED>  (5) 
0.8950

>  <MW>  (5) 
279.13

>  <LogP>  (5) 
3.75

>  <PSA>  (5) 
37.3

>  <SA_Score>  (5) 
3.08

>  <HBD>  (5) 
1

>  <HBA>  (5) 
1

>  <Lip_Violations>  (5) 
0

>  <SMILES>  (5) 
O=C(O)c1cc(Br)ccc1C1C=CC=CC1

$$$$
Candidata_006
     RDKit          3D

 27 27  0  0  0  0  0  0  0  0999 V2000
    0.9994   -1.3638    0.6963 C   0  0  0  0  0  0  0  0  0  0  0  0
    1.1210   -0.1073   -0.1766 C   0  0  0  0  0  0  0  0  0  0  0  0
    2.5641    0.4292   -0.1518 C   0  0  0  0  0  0  0  0  0  0  0  0
    3.5299   -0.4516   -0.9009 C   0  0  0  0  0  0  0  0  0  0  0  0
    3.2717   -1.2645   -1.7711 O   0  0  0  0  0  0  0  0  0  0  0  0
    4.8065   -0.2247   -0.5339 O   0  0  0  0  0  0  0  0  0  0  0  0
    0.1590    1.0018    0.3014 C   0  0  0  0  0  0  0  0  0  0  0  0
   -1.3037    0.6589    0.1478 C   0  0  0  0  0  0  0  0  0  0  0  0
   -2.1011    0.4186    1.2749 C   0  0  0  0  0  0  0  0  0  0  0  0
   -3.4526    0.0999    1.1313 C   0  0  0  0  0  0  0  0  0  0  0  0
   -4.0203    0.0198   -0.1387 C   0  0  0  0  0  0  0  0  0  0  0  0
   -3.2375    0.2588   -1.2663 C   0  0  0  0  0  0  0  0  0  0  0  0
   -1.8860    0.5777   -1.1246 C   0  0  0  0  0  0  0  0  0  0  0  0
    1.7049   -2.1382    0.3788 H   0  0  0  0  0  0  0  0  0  0  0  0
   -0.0036   -1.7972    0.6299 H   0  0  0  0  0  0  0  0  0  0  0  0
    1.2013   -1.1361    1.7485 H   0  0  0  0  0  0  0  0  0  0  0  0
    0.8641   -0.3862   -1.2066 H   0  0  0  0  0  0  0  0  0  0  0  0
    2.6112    1.4173   -0.6244 H   0  0  0  0  0  0  0  0  0  0  0  0
    2.9047    0.5285    0.8857 H   0  0  0  0  0  0  0  0  0  0  0  0
    5.3266   -0.8355   -1.0975 H   0  0  0  0  0  0  0  0  0  0  0  0
    0.3756    1.2544    1.3478 H   0  0  0  0  0  0  0  0  0  0  0  0
    0.3412    1.9231   -0.2681 H   0  0  0  0  0  0  0  0  0  0  0  0
   -1.6743    0.4743    2.2736 H   0  0  0  0  0  0  0  0  0  0  0  0
   -4.0624   -0.0867    2.0113 H   0  0  0  0  0  0  0  0  0  0  0  0
   -5.0722   -0.2291   -0.2498 H   0  0  0  0  0  0  0  0  0  0  0  0
   -3.6789    0.1964   -2.2574 H   0  0  0  0  0  0  0  0  0  0  0  0
   -1.2889    0.7621   -2.0148 H   0  0  0  0  0  0  0  0  0  0  0  0
  1  2  1  0
  2  3  1  0
  3  4  1  0
  4  5  2  0
  4  6  1  0
  2  7  1  0
  7  8  1  0
  8  9  2  0
  9 10  1  0
 10 11  2  0
 11 12  1  0
 12 13  2  0
 13  8  1  0
  1 14  1  0
  1 15  1  0
  1 16  1  0
  2 17  1  0
  3 18  1  0
  3 19  1  0
  6 20  1  0
  7 21  1  0
  7 22  1  0
  9 23  1  0
 10 24  1  0
 11 25  1  0
 12 26  1  0
 13 27  1  0
M  END
>  <Rank>  (6) 
6

>  <Score>  (6) 
0.8380

>  <Pharma_Score>  (6) 
1.0000

>  <QED>  (6) 
0.7680

>  <MW>  (6) 
178.23

>  <LogP>  (6) 
2.34

>  <PSA>  (6) 
37.3

>  <SA_Score>  (6) 
2.03

>  <HBD>  (6) 
1

>  <HBA>  (6) 
1

>  <Lip_Violations>  (6) 
0

>  <SMILES>  (6) 
CC(CC(=O)O)Cc1ccccc1

$$$$
Candidata_007
     RDKit          3D

 33 33  0  0  0  0  0  0  0  0999 V2000
    6.0231    1.1029    0.9024 C   0  0  0  0  0  0  0  0  0  0  0  0
    5.0591    0.0172    0.5478 C   0  0  0  0  0  0  0  0  0  0  0  0
    3.8035    0.2420    0.1311 C   0  0  0  0  0  0  0  0  0  0  0  0
    2.8888   -0.8278   -0.2017 C   0  0  0  0  0  0  0  0  0  0  0  0
    1.6233   -0.7180   -0.6392 C   0  0  0  0  0  0  0  0  0  0  0  0
    0.8886    0.5004   -0.9009 C   0  0  0  0  0  0  0  0  0  0  0  0
   -0.4004    0.5899   -1.2696 C   0  0  0  0  0  0  0  0  0  0  0  0
   -1.4000   -0.5181   -1.4673 C   0  0  0  0  0  0  0  0  0  0  0  0
   -2.7009   -0.2648   -0.7314 C   0  0  0  0  0  0  0  0  0  0  0  0
   -3.8550    0.0224   -1.4853 C   0  0  0  0  0  0  0  0  0  0  0  0
   -5.0696    0.3153   -0.8603 C   0  0  0  0  0  0  0  0  0  0  0  0
   -5.1458    0.3345    0.5288 C   0  0  0  0  0  0  0  0  0  0  0  0
   -6.7866    0.7454    1.3723 Br  0  0  0  0  0  0  0  0  0  0  0  0
   -4.0226    0.0543    1.3003 C   0  0  0  0  0  0  0  0  0  0  0  0
   -2.8059   -0.2606    0.6758 C   0  0  0  0  0  0  0  0  0  0  0  0
   -1.6723   -0.5390    1.5824 C   0  0  0  0  0  0  0  0  0  0  0  0
   -1.3963    0.0923    2.5849 O   0  0  0  0  0  0  0  0  0  0  0  0
   -1.0135   -1.6583    1.2426 O   0  0  0  0  0  0  0  0  0  0  0  0
    6.9083    1.0384    0.2622 H   0  0  0  0  0  0  0  0  0  0  0  0
    5.5877    2.1000    0.7832 H   0  0  0  0  0  0  0  0  0  0  0  0
    6.3421    0.9920    1.9432 H   0  0  0  0  0  0  0  0  0  0  0  0
    5.4330   -0.9995    0.6454 H   0  0  0  0  0  0  0  0  0  0  0  0
    3.4530    1.2663    0.0438 H   0  0  0  0  0  0  0  0  0  0  0  0
    3.2793   -1.8376   -0.0744 H   0  0  0  0  0  0  0  0  0  0  0  0
    1.0984   -1.6525   -0.8265 H   0  0  0  0  0  0  0  0  0  0  0  0
    1.4345    1.4363   -0.8026 H   0  0  0  0  0  0  0  0  0  0  0  0
   -0.7894    1.5927   -1.4498 H   0  0  0  0  0  0  0  0  0  0  0  0
   -1.0203   -1.5064   -1.1974 H   0  0  0  0  0  0  0  0  0  0  0  0
   -1.6002   -0.5809   -2.5452 H   0  0  0  0  0  0  0  0  0  0  0  0
   -3.8136    0.0301   -2.5735 H   0  0  0  0  0  0  0  0  0  0  0  0
   -5.9448    0.5352   -1.4668 H   0  0  0  0  0  0  0  0  0  0  0  0
   -4.0833    0.0755    2.3866 H   0  0  0  0  0  0  0  0  0  0  0  0
   -0.3024   -1.7195    1.9147 H   0  0  0  0  0  0  0  0  0  0  0  0
  1  2  1  0
  2  3  2  3
  3  4  1  0
  4  5  2  3
  5  6  1  0
  6  7  2  3
  7  8  1  0
  8  9  1  0
  9 10  1  0
 10 11  2  0
 11 12  1  0
 12 13  1  0
 12 14  2  0
 14 15  1  0
 15 16  1  0
 16 17  2  0
 16 18  1  0
 15  9  2  0
  1 19  1  0
  1 20  1  0
  1 21  1  0
  2 22  1  0
  3 23  1  0
  4 24  1  0
  5 25  1  0
  6 26  1  0
  7 27  1  0
  8 28  1  0
  8 29  1  0
 10 30  1  0
 11 31  1  0
 14 32  1  0
 18 33  1  0
M  END
>  <Rank>  (7) 
7

>  <Score>  (7) 
0.8250

>  <Pharma_Score>  (7) 
1.0000

>  <QED>  (7) 
0.8200

>  <MW>  (7) 
307.19

>  <LogP>  (7) 
4.38

>  <PSA>  (7) 
37.3

>  <SA_Score>  (7) 
2.80

>  <HBD>  (7) 
1

>  <HBA>  (7) 
1

>  <Lip_Violations>  (7) 
0

>  <SMILES>  (7) 
CC=CC=CC=CCc1ccc(Br)cc1C(=O)O

$$$$
Candidata_008
     RDKit          3D

 29 30  0  0  0  0  0  0  0  0999 V2000
    3.8936    1.9359    0.8321 O   0  0  0  0  0  0  0  0  0  0  0  0
    2.8677    1.5166    0.2037 C   0  0  0  0  0  0  0  0  0  0  0  0
    2.2242    2.4599   -0.5651 O   0  0  0  0  0  0  0  0  0  0  0  0
    2.5069    0.1306    0.3657 C   0  0  0  0  0  0  0  0  0  0  0  0
    3.3093   -0.6817    1.1571 C   0  0  0  0  0  0  0  0  0  0  0  0
    3.0737   -2.0171    1.3597 C   0  0  0  0  0  0  0  0  0  0  0  0
    4.2222   -3.0726    2.4639 Br  0  0  0  0  0  0  0  0  0  0  0  0
    1.9921   -2.6265    0.7640 C   0  0  0  0  0  0  0  0  0  0  0  0
    1.1857   -1.8376   -0.0233 C   0  0  0  0  0  0  0  0  0  0  0  0
    1.4266   -0.4806   -0.2275 C   0  0  0  0  0  0  0  0  0  0  0  0
    0.4487    0.2441   -1.0759 C   0  0  0  0  0  0  0  0  0  0  0  0
   -0.4858    0.9545   -0.2062 C   0  0  0  0  0  0  0  0  0  0  0  0
   -1.8161    0.7901   -0.1984 C   0  0  0  0  0  0  0  0  0  0  0  0
   -2.6385    1.6726    0.8366 B   0  0  0  0  0  2  0  0  0  0  0  0
   -4.1489    1.3310    0.6851 C   0  0  0  0  0  0  0  0  0  0  0  0
   -4.6461    0.4587   -0.1598 C   0  0  0  0  0  0  0  0  0  0  0  0
   -3.8248   -0.3106   -1.0776 C   0  0  0  0  0  0  0  0  0  0  0  0
   -2.4912   -0.1451   -1.0860 C   0  0  0  0  0  0  0  0  0  0  0  0
    2.5992    3.3665   -0.8047 H   0  0  0  0  0  0  0  0  0  0  0  0
    4.1924   -0.2718    1.6671 H   0  0  0  0  0  0  0  0  0  0  0  0
    1.7607   -3.6754    0.8898 H   0  0  0  0  0  0  0  0  0  0  0  0
    0.3337   -2.3181   -0.4924 H   0  0  0  0  0  0  0  0  0  0  0  0
    0.9957    0.9954   -1.7018 H   0  0  0  0  0  0  0  0  0  0  0  0
   -0.0457   -0.5068   -1.7436 H   0  0  0  0  0  0  0  0  0  0  0  0
   -0.0829    1.6686    0.4987 H   0  0  0  0  0  0  0  0  0  0  0  0
   -4.8424    1.8670    1.3405 H   0  0  0  0  0  0  0  0  0  0  0  0
   -5.7261    0.3083   -0.1698 H   0  0  0  0  0  0  0  0  0  0  0  0
   -4.3134   -0.9980   -1.7314 H   0  0  0  0  0  0  0  0  0  0  0  0
   -1.9704   -0.7582   -1.8007 H   0  0  0  0  0  0  0  0  0  0  0  0
  1  2  2  0
  2  3  1  0
  2  4  1  0
  4  5  1  0
  5  6  2  0
  6  7  1  0
  6  8  1  0
  8  9  2  0
  9 10  1  0
 10 11  1  0
 11 12  1  0
 12 13  2  3
 13 14  1  0
 14 15  1  0
 15 16  2  0
 16 17  1  0
 17 18  2  0
 10  4  2  0
 18 13  1  0
  3 19  1  0
  5 20  1  0
  8 21  1  0
  9 22  1  0
 11 23  1  0
 11 24  1  0
 12 25  1  0
 15 26  1  0
 16 27  1  0
 17 28  1  0
 18 29  1  0
M  CHG  1  14  -1
M  RAD  1  14   3
M  END
>  <Rank>  (8) 
8

>  <Score>  (8) 
0.8040

>  <Pharma_Score>  (8) 
1.0000

>  <QED>  (8) 
0.8690

>  <MW>  (8) 
301.96

>  <LogP>  (8) 
3.36

>  <PSA>  (8) 
37.3

>  <SA_Score>  (8) 
3.75

>  <HBD>  (8) 
1

>  <HBA>  (8) 
1

>  <Lip_Violations>  (8) 
0

>  <SMILES>  (8) 
O=C(O)c1cc(Br)ccc1CC=C1[B-]C=CC=C1

$$$$
Candidata_009
     RDKit          3D

 30 30  0  0  0  0  0  0  0  0999 V2000
    5.9403   -0.1640    2.5489 O   0  0  0  0  0  0  0  0  0  0  0  0
    6.1160    0.3772    1.4747 C   0  0  0  0  0  0  0  0  0  0  0  0
    7.2831    0.9487    1.1408 O   0  0  0  0  0  0  0  0  0  0  0  0
    5.1516    0.5157    0.3757 C   0  0  0  0  0  0  0  0  0  0  0  0
    3.9153    0.0094    0.5137 C   0  0  0  0  0  0  0  0  0  0  0  0
    2.8217    0.0441   -0.4564 C   0  0  0  0  0  0  0  0  0  0  0  0
    3.1232    0.8833   -2.1160 Br  0  0  0  0  0  0  0  0  0  0  0  0
    1.6402   -0.5229   -0.1336 C   0  0  0  0  0  0  0  0  0  0  0  0
    0.4415   -0.5936   -0.9470 C   0  0  0  0  0  0  0  0  0  0  0  0
   -0.6871   -1.1865   -0.5251 C   0  0  0  0  0  0  0  0  0  0  0  0
   -1.9450   -1.2708   -1.3448 C   0  0  0  0  0  0  0  0  0  0  0  0
   -3.1177   -0.6099   -0.6607 C   0  0  0  0  0  0  0  0  0  0  0  0
   -3.2695    0.7837   -0.7021 C   0  0  0  0  0  0  0  0  0  0  0  0
   -4.3449    1.3986   -0.0590 C   0  0  0  0  0  0  0  0  0  0  0  0
   -5.2760    0.6283    0.6350 C   0  0  0  0  0  0  0  0  0  0  0  0
   -5.1314   -0.7569    0.6891 C   0  0  0  0  0  0  0  0  0  0  0  0
   -4.0564   -1.3740    0.0470 C   0  0  0  0  0  0  0  0  0  0  0  0
    7.8505    0.8057    1.9268 H   0  0  0  0  0  0  0  0  0  0  0  0
    5.5002    1.0322   -0.5085 H   0  0  0  0  0  0  0  0  0  0  0  0
    3.6801   -0.4909    1.4552 H   0  0  0  0  0  0  0  0  0  0  0  0
    1.5417   -0.9890    0.8471 H   0  0  0  0  0  0  0  0  0  0  0  0
    0.4600   -0.1435   -1.9363 H   0  0  0  0  0  0  0  0  0  0  0  0
   -0.7328   -1.6447    0.4608 H   0  0  0  0  0  0  0  0  0  0  0  0
   -2.1720   -2.3280   -1.5309 H   0  0  0  0  0  0  0  0  0  0  0  0
   -1.8092   -0.8176   -2.3352 H   0  0  0  0  0  0  0  0  0  0  0  0
   -2.5457    1.3974   -1.2340 H   0  0  0  0  0  0  0  0  0  0  0  0
   -4.4539    2.4792   -0.0975 H   0  0  0  0  0  0  0  0  0  0  0  0
   -6.1125    1.1078    1.1362 H   0  0  0  0  0  0  0  0  0  0  0  0
   -5.8556   -1.3572    1.2336 H   0  0  0  0  0  0  0  0  0  0  0  0
   -3.9557   -2.4554    0.1028 H   0  0  0  0  0  0  0  0  0  0  0  0
  1  2  2  0
  2  3  1  0
  2  4  1  0
  4  5  2  3
  5  6  1  0
  6  7  1  0
  6  8  2  3
  8  9  1  0
  9 10  2  3
 10 11  1  0
 11 12  1  0
 12 13  2  0
 13 14  1  0
 14 15  2  0
 15 16  1  0
 16 17  2  0
 17 12  1  0
  3 18  1  0
  4 19  1  0
  5 20  1  0
  8 21  1  0
  9 22  1  0
 10 23  1  0
 11 24  1  0
 11 25  1  0
 13 26  1  0
 14 27  1  0
 15 28  1  0
 16 29  1  0
 17 30  1  0
M  END
>  <Rank>  (9) 
9

>  <Score>  (9) 
0.7720

>  <Pharma_Score>  (9) 
1.0000

>  <QED>  (9) 
0.6640

>  <MW>  (9) 
293.16

>  <LogP>  (9) 
3.70

>  <PSA>  (9) 
37.3

>  <SA_Score>  (9) 
2.75

>  <HBD>  (9) 
1

>  <HBA>  (9) 
1

>  <Lip_Violations>  (9) 
0

>  <SMILES>  (9) 
O=C(O)C=CC(Br)=CC=CCc1ccccc1

$$$$
Candidata_010
     RDKit          3D

 28 28  0  0  0  0  0  0  0  0999 V2000
    4.6274    1.9163   -1.5137 C   0  0  0  0  0  0  0  0  0  0  0  0
    4.4060    1.3223   -0.4943 C   0  0  0  0  0  0  0  0  0  0  0  0
    4.1511    0.6215    0.7161 C   0  0  0  0  0  0  0  0  0  0  0  0
    3.0798   -0.1564    0.9334 C   0  0  0  0  0  0  0  0  0  0  0  0
    2.0104   -0.4211   -0.0046 C   0  0  0  0  0  0  0  0  0  0  0  0
    0.9565   -1.1979    0.2912 C   0  0  0  0  0  0  0  0  0  0  0  0
   -0.1649   -1.4831   -0.6700 C   0  0  0  0  0  0  0  0  0  0  0  0
   -1.4973   -0.9793   -0.1559 C   0  0  0  0  0  0  0  0  0  0  0  0
   -2.3775   -1.9018    0.4421 C   0  0  0  0  0  0  0  0  0  0  0  0
   -3.5980   -1.4876    0.9791 C   0  0  0  0  0  0  0  0  0  0  0  0
   -3.9520   -0.1433    0.9320 C   0  0  0  0  0  0  0  0  0  0  0  0
   -5.6038    0.4169    1.6610 Br  0  0  0  0  0  0  0  0  0  0  0  0
   -3.0998    0.7917    0.3515 C   0  0  0  0  0  0  0  0  0  0  0  0
   -1.8717    0.3810   -0.1935 C   0  0  0  0  0  0  0  0  0  0  0  0
   -1.0078    1.4102   -0.8235 C   0  0  0  0  0  0  0  0  0  0  0  0
   -0.3280    1.2871   -1.8232 O   0  0  0  0  0  0  0  0  0  0  0  0
   -1.0399    2.5660   -0.1348 O   0  0  0  0  0  0  0  0  0  0  0  0
    4.8188    2.4394   -2.4215 H   0  0  0  0  0  0  0  0  0  0  0  0
    4.8840    0.7361    1.5101 H   0  0  0  0  0  0  0  0  0  0  0  0
    2.9989   -0.6373    1.9070 H   0  0  0  0  0  0  0  0  0  0  0  0
    2.0707    0.0431   -0.9882 H   0  0  0  0  0  0  0  0  0  0  0  0
    0.8822   -1.6690    1.2689 H   0  0  0  0  0  0  0  0  0  0  0  0
    0.0333   -1.0880   -1.6716 H   0  0  0  0  0  0  0  0  0  0  0  0
   -0.2154   -2.5709   -0.8116 H   0  0  0  0  0  0  0  0  0  0  0  0
   -2.1117   -2.9563    0.4991 H   0  0  0  0  0  0  0  0  0  0  0  0
   -4.2598   -2.2204    1.4342 H   0  0  0  0  0  0  0  0  0  0  0  0
   -3.3872    1.8401    0.3162 H   0  0  0  0  0  0  0  0  0  0  0  0
   -0.4043    3.1406   -0.6109 H   0  0  0  0  0  0  0  0  0  0  0  0
  1  2  3  0
  2  3  1  0
  3  4  2  3
  4  5  1  0
  5  6  2  3
  6  7  1  0
  7  8  1  0
  8  9  1  0
  9 10  2  0
 10 11  1  0
 11 12  1  0
 11 13  2  0
 13 14  1  0
 14 15  1  0
 15 16  2  0
 15 17  1  0
 14  8  2  0
  1 18  1  0
  3 19  1  0
  4 20  1  0
  5 21  1  0
  6 22  1  0
  7 23  1  0
  7 24  1  0
  9 25  1  0
 10 26  1  0
 13 27  1  0
 17 28  1  0
M  END
>  <Rank>  (10) 
10

>  <Score>  (10) 
0.7690

>  <Pharma_Score>  (10) 
1.0000

>  <QED>  (10) 
0.6810

>  <MW>  (10) 
291.14

>  <LogP>  (10) 
3.44

>  <PSA>  (10) 
37.3

>  <SA_Score>  (10) 
2.98

>  <HBD>  (10) 
1

>  <HBA>  (10) 
1

>  <Lip_Violations>  (10) 
0

>  <SMILES>  (10) 
C#CC=CC=CCc1ccc(Br)cc1C(=O)O

$$$$
Candidata_011
     RDKit          3D

 16 15  0  0  0  0  0  0  0  0999 V2000
   -2.2976    0.9605    0.8762 C   0  0  0  0  0  0  0  0  0  0  0  0
   -2.0709   -0.4367    0.3906 C   0  0  0  0  0  0  0  0  0  0  0  0
   -0.9374   -1.0013   -0.0700 C   0  0  0  0  0  0  0  0  0  0  0  0
   -1.0189   -2.8073   -0.6203 Br  0  0  0  0  0  0  0  0  0  0  0  0
    0.3470   -0.3149   -0.1182 C   0  0  0  0  0  0  0  0  0  0  0  0
    1.4624   -0.7256   -0.7451 C   0  0  0  0  0  0  0  0  0  0  0  0
    2.7234    0.0294   -0.7416 C   0  0  0  0  0  0  0  0  0  0  0  0
    3.7393   -0.3286   -1.3098 O   0  0  0  0  0  0  0  0  0  0  0  0
    2.6750    1.1763   -0.0476 O   0  0  0  0  0  0  0  0  0  0  0  0
   -2.5108    0.9496    1.9494 H   0  0  0  0  0  0  0  0  0  0  0  0
   -3.1659    1.3863    0.3626 H   0  0  0  0  0  0  0  0  0  0  0  0
   -1.4568    1.6336    0.6983 H   0  0  0  0  0  0  0  0  0  0  0  0
   -2.9739   -1.0472    0.4148 H   0  0  0  0  0  0  0  0  0  0  0  0
    0.3918    0.6299    0.4181 H   0  0  0  0  0  0  0  0  0  0  0  0
    1.5151   -1.6476   -1.3115 H   0  0  0  0  0  0  0  0  0  0  0  0
    3.5781    1.5436   -0.1458 H   0  0  0  0  0  0  0  0  0  0  0  0
  1  2  1  0
  2  3  2  3
  3  4  1  0
  3  5  1  0
  5  6  2  3
  6  7  1  0
  7  8  2  0
  7  9  1  0
  1 10  1  0
  1 11  1  0
  1 12  1  0
  2 13  1  0
  5 14  1  0
  6 15  1  0
  9 16  1  0
M  END
>  <Rank>  (11) 
11

>  <Score>  (11) 
0.7070

>  <Pharma_Score>  (11) 
1.0000

>  <QED>  (11) 
0.5340

>  <MW>  (11) 
191.02

>  <LogP>  (11) 
1.93

>  <PSA>  (11) 
37.3

>  <SA_Score>  (11) 
3.24

>  <HBD>  (11) 
1

>  <HBA>  (11) 
1

>  <Lip_Violations>  (11) 
0

>  <SMILES>  (11) 
CC=C(Br)C=CC(=O)O

$$$$
Candidata_012
     RDKit          3D

 13 12  0  0  0  0  0  0  0  0999 V2000
   -1.8181    1.1684    1.7232 C   0  0  0  0  0  0  0  0  0  0  0  0
   -1.4947    0.6128    0.5455 C   0  0  0  0  0  0  0  0  0  0  0  0
   -2.8006    0.4938   -0.7973 Br  0  0  0  0  0  0  0  0  0  0  0  0
   -0.1503    0.1087    0.3104 C   0  0  0  0  0  0  0  0  0  0  0  0
    0.3167   -0.4684   -0.8090 C   0  0  0  0  0  0  0  0  0  0  0  0
    1.6965   -0.9508   -0.9601 C   0  0  0  0  0  0  0  0  0  0  0  0
    2.1339   -1.4757   -1.9682 O   0  0  0  0  0  0  0  0  0  0  0  0
    2.4640   -0.7665    0.1246 O   0  0  0  0  0  0  0  0  0  0  0  0
   -1.1019    1.2621    2.5331 H   0  0  0  0  0  0  0  0  0  0  0  0
   -2.8169    1.5494    1.9145 H   0  0  0  0  0  0  0  0  0  0  0  0
    0.5329    0.2249    1.1520 H   0  0  0  0  0  0  0  0  0  0  0  0
   -0.2933   -0.6227   -1.6910 H   0  0  0  0  0  0  0  0  0  0  0  0
    3.3318   -1.1361   -0.1412 H   0  0  0  0  0  0  0  0  0  0  0  0
  1  2  2  0
  2  3  1  0
  2  4  1  0
  4  5  2  3
  5  6  1  0
  6  7  2  0
  6  8  1  0
  1  9  1  0
  1 10  1  0
  4 11  1  0
  5 12  1  0
  8 13  1  0
M  END
>  <Rank>  (12) 
12

>  <Score>  (12) 
0.6950

>  <Pharma_Score>  (12) 
1.0000

>  <QED>  (12) 
0.5130

>  <MW>  (12) 
177.00

>  <LogP>  (12) 
1.54

>  <PSA>  (12) 
37.3

>  <SA_Score>  (12) 
3.37

>  <HBD>  (12) 
1

>  <HBA>  (12) 
1

>  <Lip_Violations>  (12) 
0

>  <SMILES>  (12) 
C=C(Br)C=CC(=O)O

$$$$
Candidata_013
     RDKit          3D

 31 32  0  0  0  0  0  0  0  0999 V2000
   -4.9324    1.5135   -0.1414 O   0  0  0  0  0  0  0  0  0  0  0  0
   -3.8225    1.8905    0.2597 C   0  0  0  0  0  0  0  0  0  0  0  0
   -3.8721    3.1717    0.8934 O   0  0  0  0  0  0  0  0  0  0  0  0
   -2.5400    1.2711    0.1935 C   0  0  0  0  0  0  0  0  0  0  0  0
   -2.1058    0.1521   -0.2857 C   0  0  0  0  0  0  0  0  0  0  0  0
   -2.8743   -0.8830   -0.9521 C   0  0  0  0  0  0  0  0  0  0  0  0
   -4.7448   -0.7588   -1.2513 Br  0  0  0  0  0  0  0  0  0  0  0  0
   -2.3071   -2.0161   -1.4100 C   0  0  0  0  0  0  0  0  0  0  0  0
   -0.8812   -2.3160   -1.2852 C   0  0  0  0  0  0  0  0  0  0  0  0
   -0.1264   -1.2664   -0.6131 C   0  0  0  0  0  0  0  0  0  0  0  0
   -0.6448   -0.1481   -0.1543 C   0  0  0  0  0  0  0  0  0  0  0  0
    0.2428    0.8286    0.4831 C   0  0  0  0  0  0  0  0  0  0  0  0
    1.6769    0.4687    0.5216 C   0  0  0  0  0  0  0  0  0  0  0  0
    2.2252    0.2369    1.7020 C   0  0  0  0  0  0  0  0  0  0  0  0
    3.6317   -0.1152    1.7233 C   0  0  0  0  0  0  0  0  0  0  0  0
    4.3684   -0.2128    0.6492 C   0  0  0  0  0  0  0  0  0  0  0  0
    3.9571    0.0009   -0.7428 C   0  0  0  0  0  0  0  0  0  0  0  0
    2.4516    0.4298   -0.8282 B   0  0  0  0  0  2  0  0  0  0  0  0
   -4.7805    3.6627    0.9503 H   0  0  0  0  0  0  0  0  0  0  0  0
   -1.7266    1.8984    0.6685 H   0  0  0  0  0  0  0  0  0  0  0  0
   -2.9248   -2.7813   -1.9121 H   0  0  0  0  0  0  0  0  0  0  0  0
   -0.7742   -3.2888   -0.7113 H   0  0  0  0  0  0  0  0  0  0  0  0
   -0.3895   -2.4606   -2.2934 H   0  0  0  0  0  0  0  0  0  0  0  0
    0.9553   -1.4590   -0.4823 H   0  0  0  0  0  0  0  0  0  0  0  0
   -0.0732    1.0845    1.5239 H   0  0  0  0  0  0  0  0  0  0  0  0
    0.1127    1.7812   -0.1285 H   0  0  0  0  0  0  0  0  0  0  0  0
    1.6571    0.3037    2.6299 H   0  0  0  0  0  0  0  0  0  0  0  0
    4.0649   -0.3025    2.7130 H   0  0  0  0  0  0  0  0  0  0  0  0
    5.4232   -0.4882    0.8108 H   0  0  0  0  0  0  0  0  0  0  0  0
    4.6419    0.7762   -1.2231 H   0  0  0  0  0  0  0  0  0  0  0  0
    4.1114   -0.9738   -1.3076 H   0  0  0  0  0  0  0  0  0  0  0  0
  1  2  2  0
  2  3  1  0
  2  4  1  0
  4  5  2  3
  5  6  1  0
  6  7  1  0
  6  8  2  0
  8  9  1  0
  9 10  1  0
 10 11  2  0
 11 12  1  0
 12 13  1  0
 13 14  2  0
 14 15  1  0
 15 16  2  0
 16 17  1  0
 17 18  1  0
 11  5  1  0
 18 13  1  0
  3 19  1  0
  4 20  1  0
  8 21  1  0
  9 22  1  0
  9 23  1  0
 10 24  1  0
 12 25  1  0
 12 26  1  0
 14 27  1  0
 15 28  1  0
 16 29  1  0
 17 30  1  0
 17 31  1  0
M  CHG  1  18  -1
M  RAD  1  18   3
M  END
>  <Rank>  (13) 
13

>  <Score>  (13) 
0.6860

>  <Pharma_Score>  (13) 
1.0000

>  <QED>  (13) 
0.6390

>  <MW>  (13) 
303.97

>  <LogP>  (13) 
3.57

>  <PSA>  (13) 
37.3

>  <SA_Score>  (13) 
4.69

>  <HBD>  (13) 
1

>  <HBA>  (13) 
1

>  <Lip_Violations>  (13) 
0

>  <SMILES>  (13) 
O=C(O)C=C1C(Br)=CCC=C1CC1=CC=CC[B-]1

$$$$
Candidata_014
     RDKit          3D

 27 27  0  0  0  0  0  0  0  0999 V2000
    4.8640    1.0926    0.2121 O   0  0  0  0  0  0  0  0  0  0  0  0
    5.2082   -0.1225    0.1360 C   0  0  0  0  0  0  0  0  0  0  0  0
    4.1282   -1.1114    0.3015 C   0  0  0  0  0  0  0  0  0  0  0  0
    2.8929   -0.6813    0.5165 C   0  0  0  0  0  0  0  0  0  0  0  0
    1.7593   -1.5988    0.6920 C   0  0  0  0  0  0  0  0  0  0  0  0
    0.4509   -1.1758    0.9198 B   0  0  0  0  0  3  0  0  0  0  0  0
   -0.0624    0.3009    1.0323 C   0  0  0  0  0  0  0  0  0  0  0  0
   -1.4563    0.4115    0.5528 C   0  0  0  0  0  0  0  0  0  0  0  0
   -2.5269    0.4922    1.4516 C   0  0  0  0  0  0  0  0  0  0  0  0
   -3.8339    0.5834    1.0358 C   0  0  0  0  0  0  0  0  0  0  0  0
   -4.1511    0.5996   -0.2991 C   0  0  0  0  0  0  0  0  0  0  0  0
   -5.9284    0.7226   -0.9631 Br  0  0  0  0  0  0  0  0  0  0  0  0
   -3.1054    0.5210   -1.1958 C   0  0  0  0  0  0  0  0  0  0  0  0
   -1.7854    0.4290   -0.7931 C   0  0  0  0  0  0  0  0  0  0  0  0
   -0.7356    0.3623   -1.8083 C   0  0  0  0  0  0  0  0  0  0  0  0
    0.4736    0.2922   -1.5716 O   0  0  0  0  0  0  0  0  0  0  0  0
   -1.1080    0.3776   -3.1687 O   0  0  0  0  0  0  0  0  0  0  0  0
    6.2212   -0.4321   -0.0381 H   0  0  0  0  0  0  0  0  0  0  0  0
    4.3000   -2.1755    0.2560 H   0  0  0  0  0  0  0  0  0  0  0  0
    2.6685    0.3689    0.5707 H   0  0  0  0  0  0  0  0  0  0  0  0
    1.9453   -2.6614    0.6420 H   0  0  0  0  0  0  0  0  0  0  0  0
    0.6235    1.0671    0.6213 H   0  0  0  0  0  0  0  0  0  0  0  0
   -0.0896    0.5328    2.1336 H   0  0  0  0  0  0  0  0  0  0  0  0
   -2.3636    0.4849    2.5293 H   0  0  0  0  0  0  0  0  0  0  0  0
   -4.6582    0.6462    1.7633 H   0  0  0  0  0  0  0  0  0  0  0  0
   -3.3242    0.5314   -2.2595 H   0  0  0  0  0  0  0  0  0  0  0  0
   -0.4066    0.1428   -3.8835 H   0  0  0  0  0  0  0  0  0  0  0  0
  1  2  2  0
  2  3  1  0
  3  4  2  3
  4  5  1  0
  5  6  2  3
  6  7  1  0
  7  8  1  0
  8  9  1  0
  9 10  2  0
 10 11  1  0
 11 12  1  0
 11 13  2  0
 13 14  1  0
 14 15  1  0
 15 16  2  0
 15 17  1  0
 14  8  2  0
  2 18  1  0
  3 19  1  0
  4 20  1  0
  5 21  1  0
  7 22  1  0
  7 23  1  0
  9 24  1  0
 10 25  1  0
 13 26  1  0
 17 27  1  0
M  CHG  1   6  -1
M  RAD  1   6   2
M  END
>  <Rank>  (14) 
14

>  <Score>  (14) 
0.6840

>  <Pharma_Score>  (14) 
1.0000

>  <QED>  (14) 
0.5120

>  <MW>  (14) 
292.93

>  <LogP>  (14) 
1.91

>  <PSA>  (14) 
54.4

>  <SA_Score>  (14) 
3.62

>  <HBD>  (14) 
1

>  <HBA>  (14) 
2

>  <Lip_Violations>  (14) 
0

>  <SMILES>  (14) 
O=CC=CC=[B-]Cc1ccc(Br)cc1C(=O)O

$$$$
Candidata_015
     RDKit          3D

 15 14  0  0  0  0  0  0  0  0999 V2000
   -2.1181   -0.3852    0.3021 C   0  0  0  0  0  0  0  0  0  0  0  0
   -1.3781    0.6859   -0.4874 C   0  0  0  0  0  0  0  0  0  0  0  0
   -2.0578    0.6723   -2.3274 Br  0  0  0  0  0  0  0  0  0  0  0  0
    0.1163    0.5662   -0.5810 C   0  0  0  0  0  0  0  0  0  0  0  0
    0.8761   -0.4323   -0.0993 C   0  0  0  0  0  0  0  0  0  0  0  0
    2.3420   -0.4845   -0.2161 C   0  0  0  0  0  0  0  0  0  0  0  0
    3.0306   -1.3952    0.2075 O   0  0  0  0  0  0  0  0  0  0  0  0
    2.8772    0.5778   -0.8346 O   0  0  0  0  0  0  0  0  0  0  0  0
   -1.9686   -1.3857   -0.1197 H   0  0  0  0  0  0  0  0  0  0  0  0
   -3.1970   -0.1920    0.3062 H   0  0  0  0  0  0  0  0  0  0  0  0
   -1.7842   -0.4018    1.3453 H   0  0  0  0  0  0  0  0  0  0  0  0
   -1.6348    1.6741   -0.0911 H   0  0  0  0  0  0  0  0  0  0  0  0
    0.6072    1.3995   -1.0848 H   0  0  0  0  0  0  0  0  0  0  0  0
    0.4510   -1.2880    0.4127 H   0  0  0  0  0  0  0  0  0  0  0  0
    3.8382    0.3889   -0.8353 H   0  0  0  0  0  0  0  0  0  0  0  0
  1  2  1  0
  2  3  1  0
  2  4  1  0
  4  5  2  3
  5  6  1  0
  6  7  2  0
  6  8  1  0
  1  9  1  0
  1 10  1  0
  1 11  1  0
  2 12  1  0
  4 13  1  0
  5 14  1  0
  8 15  1  0
M  END
>  <Rank>  (15) 
15

>  <Score>  (15) 
0.6820

>  <Pharma_Score>  (15) 
1.0000

>  <QED>  (15) 
0.5130

>  <MW>  (15) 
179.01

>  <LogP>  (15) 
1.41

>  <PSA>  (15) 
37.3

>  <SA_Score>  (15) 
3.69

>  <HBD>  (15) 
1

>  <HBA>  (15) 
1

>  <Lip_Violations>  (15) 
0

>  <SMILES>  (15) 
CC(Br)C=CC(=O)O

$$$$
Candidata_016
     RDKit          3D

 21 20  0  0  0  0  0  0  0  0999 V2000
   -1.0431   -1.7924    0.0772 C   0  0  0  0  0  0  0  0  0  0  0  0
   -0.3789   -0.4800    0.5067 C   0  0  0  0  0  0  0  0  0  0  0  0
   -1.2208    0.7647    0.3242 C   0  0  0  0  0  0  0  0  0  0  0  0
   -2.4257    0.8424   -0.2613 C   0  0  0  0  0  0  0  0  0  0  0  0
   -3.1282    2.1381   -0.3621 C   0  0  0  0  0  0  0  0  0  0  0  0
   -4.2350    2.2219   -0.8791 O   0  0  0  0  0  0  0  0  0  0  0  0
    0.9280   -0.3170   -0.2293 C   0  0  0  0  0  0  0  0  0  0  0  0
    2.1276   -0.2763    0.3725 C   0  0  0  0  0  0  0  0  0  0  0  0
    3.3527   -0.1160   -0.4230 C   0  0  0  0  0  0  0  0  0  0  0  0
    3.4435   -0.0053   -1.6297 O   0  0  0  0  0  0  0  0  0  0  0  0
    4.4250   -0.1033    0.3836 O   0  0  0  0  0  0  0  0  0  0  0  0
   -0.3884   -2.6460    0.2888 H   0  0  0  0  0  0  0  0  0  0  0  0
   -1.2667   -1.8068   -0.9960 H   0  0  0  0  0  0  0  0  0  0  0  0
   -1.9790   -1.9562    0.6230 H   0  0  0  0  0  0  0  0  0  0  0  0
   -0.1806   -0.5632    1.5842 H   0  0  0  0  0  0  0  0  0  0  0  0
   -0.7708    1.6717    0.7293 H   0  0  0  0  0  0  0  0  0  0  0  0
   -2.9476   -0.0054   -0.6881 H   0  0  0  0  0  0  0  0  0  0  0  0
   -2.6044    3.0151    0.0527 H   0  0  0  0  0  0  0  0  0  0  0  0
    0.8706   -0.2318   -1.3152 H   0  0  0  0  0  0  0  0  0  0  0  0
    2.2432   -0.3588    1.4463 H   0  0  0  0  0  0  0  0  0  0  0  0
    5.1788    0.0046   -0.2333 H   0  0  0  0  0  0  0  0  0  0  0  0
  1  2  1  0
  2  3  1  0
  3  4  2  3
  4  5  1  0
  5  6  2  0
  2  7  1  0
  7  8  2  3
  8  9  1  0
  9 10  2  0
  9 11  1  0
  1 12  1  0
  1 13  1  0
  1 14  1  0
  2 15  1  0
  3 16  1  0
  4 17  1  0
  5 18  1  0
  7 19  1  0
  8 20  1  0
 11 21  1  0
M  END
>  <Rank>  (16) 
16

>  <Score>  (16) 
0.6680

>  <Pharma_Score>  (16) 
1.0000

>  <QED>  (16) 
0.4850

>  <MW>  (16) 
154.16

>  <LogP>  (16) 
1.02

>  <PSA>  (16) 
54.4

>  <SA_Score>  (16) 
3.79

>  <HBD>  (16) 
1

>  <HBA>  (16) 
2

>  <Lip_Violations>  (16) 
0

>  <SMILES>  (16) 
CC(C=CC=O)C=CC(=O)O

$$$$
Candidata_017
     RDKit          3D

 13 12  0  0  0  0  0  0  0  0999 V2000
    2.4447   -1.7513    1.2325 O   0  0  0  0  0  0  0  0  0  0  0  0
    1.8700   -0.8094    0.7174 C   0  0  0  0  0  0  0  0  0  0  0  0
    2.5131    0.3211    0.3931 O   0  0  0  0  0  0  0  0  0  0  0  0
    0.4380   -0.7962    0.3885 C   0  0  0  0  0  0  0  0  0  0  0  0
   -0.1985    0.2498   -0.1636 C   0  0  0  0  0  0  0  0  0  0  0  0
   -1.6492    0.2622   -0.4820 C   0  0  0  0  0  0  0  0  0  0  0  0
   -2.2394    1.3882    0.1297 O   0  0  0  0  0  0  0  0  0  0  0  0
   -1.8629    0.4242   -2.4021 Br  0  0  0  0  0  0  0  0  0  0  0  0
    3.4369    0.1557    0.6728 H   0  0  0  0  0  0  0  0  0  0  0  0
   -0.0834   -1.7153    0.6336 H   0  0  0  0  0  0  0  0  0  0  0  0
    0.3490    1.1641   -0.3827 H   0  0  0  0  0  0  0  0  0  0  0  0
   -2.1770   -0.6436   -0.1716 H   0  0  0  0  0  0  0  0  0  0  0  0
   -2.8413    1.7504   -0.5423 H   0  0  0  0  0  0  0  0  0  0  0  0
  1  2  2  0
  2  3  1  0
  2  4  1  0
  4  5  2  3
  5  6  1  0
  6  7  1  0
  6  8  1  0
  3  9  1  0
  4 10  1  0
  5 11  1  0
  6 12  1  0
  7 13  1  0
M  END
>  <Rank>  (17) 
17

>  <Score>  (17) 
0.6660

>  <Pharma_Score>  (17) 
1.0000

>  <QED>  (17) 
0.4770

>  <MW>  (17) 
180.98

>  <LogP>  (17) 
0.34

>  <PSA>  (17) 
57.5

>  <SA_Score>  (17) 
3.78

>  <HBD>  (17) 
2

>  <HBA>  (17) 
2

>  <Lip_Violations>  (17) 
0

>  <SMILES>  (17) 
O=C(O)C=CC(O)Br

$$$$
Candidata_018
     RDKit          3D

 29 30  0  0  0  0  0  0  0  0999 V2000
    4.1142    0.2823    2.1037 O   0  0  0  0  0  0  0  0  0  0  0  0
    3.4496   -0.7303    2.1965 C   0  0  0  0  0  0  0  0  0  0  0  0
    3.7052   -1.6803    3.1090 O   0  0  0  0  0  0  0  0  0  0  0  0
    2.2495   -1.0785    1.4322 C   0  0  0  0  0  0  0  0  0  0  0  0
    2.0572   -0.8744    0.1143 C   0  0  0  0  0  0  0  0  0  0  0  0
    3.0634   -0.4893   -0.9222 C   0  0  0  0  0  0  0  0  0  0  0  0
    4.8565   -1.0659   -0.6994 Br  0  0  0  0  0  0  0  0  0  0  0  0
    2.7792    0.1093   -2.1079 C   0  0  0  0  0  0  0  0  0  0  0  0
    1.4388    0.3983   -2.5687 C   0  0  0  0  0  0  0  0  0  0  0  0
    0.5308   -0.1856   -1.8637 C   0  0  0  0  0  0  0  0  0  0  0  0
    0.2832   -1.1707   -0.4061 S   0  0  0  0  0  4  0  0  0  0  0  0
   -0.4837    0.1806    0.5692 C   0  0  0  0  0  0  0  0  0  0  0  0
   -1.9294    0.3951    0.1966 C   0  0  0  0  0  0  0  0  0  0  0  0
   -2.3097    1.5014   -0.5762 C   0  0  0  0  0  0  0  0  0  0  0  0
   -3.6478    1.6985   -0.9216 C   0  0  0  0  0  0  0  0  0  0  0  0
   -4.6186    0.7920   -0.5004 C   0  0  0  0  0  0  0  0  0  0  0  0
   -4.2529   -0.3135    0.2648 C   0  0  0  0  0  0  0  0  0  0  0  0
   -2.9155   -0.5123    0.6114 C   0  0  0  0  0  0  0  0  0  0  0  0
    4.5131   -1.3606    3.5626 H   0  0  0  0  0  0  0  0  0  0  0  0
    1.4554   -1.4656    2.0622 H   0  0  0  0  0  0  0  0  0  0  0  0
    3.5709    0.3362   -2.8180 H   0  0  0  0  0  0  0  0  0  0  0  0
    1.2426    0.9121   -3.4993 H   0  0  0  0  0  0  0  0  0  0  0  0
   -0.4365   -0.0951    1.6286 H   0  0  0  0  0  0  0  0  0  0  0  0
    0.0946    1.1047    0.4520 H   0  0  0  0  0  0  0  0  0  0  0  0
   -1.5643    2.2160   -0.9183 H   0  0  0  0  0  0  0  0  0  0  0  0
   -3.9322    2.5584   -1.5223 H   0  0  0  0  0  0  0  0  0  0  0  0
   -5.6597    0.9449   -0.7719 H   0  0  0  0  0  0  0  0  0  0  0  0
   -5.0089   -1.0238    0.5890 H   0  0  0  0  0  0  0  0  0  0  0  0
   -2.6453   -1.3839    1.2036 H   0  0  0  0  0  0  0  0  0  0  0  0
  1  2  2  0
  2  3  1  0
  2  4  1  0
  4  5  2  3
  5  6  1  0
  6  7  1  0
  6  8  2  0
  8  9  1  0
  9 10  2  0
 10 11  2  0
 11 12  1  0
 12 13  1  0
 13 14  2  0
 14 15  1  0
 15 16  2  0
 16 17  1  0
 17 18  2  0
 11  5  1  0
 18 13  1  0
  3 19  1  0
  4 20  1  0
  8 21  1  0
  9 22  1  0
 12 23  1  0
 12 24  1  0
 14 25  1  0
 15 26  1  0
 16 27  1  0
 17 28  1  0
 18 29  1  0
M  CHG  1  11   1
M  RAD  1  11   2
M  END
>  <Rank>  (18) 
18

>  <Score>  (18) 
0.6600

>  <Pharma_Score>  (18) 
1.0000

>  <QED>  (18) 
0.5270

>  <MW>  (18) 
323.21

>  <LogP>  (18) 
3.02

>  <PSA>  (18) 
37.3

>  <SA_Score>  (18) 
4.35

>  <HBD>  (18) 
1

>  <HBA>  (18) 
1

>  <Lip_Violations>  (18) 
0

>  <SMILES>  (18) 
O=C(O)C=C1C(Br)=CC=C=[S+]1Cc1ccccc1

$$$$
Candidata_019
     RDKit          3D

 27 28  0  0  0  0  0  0  0  0999 V2000
    3.9021   -2.7985   -0.0729 N   0  0  0  0  0  1  0  0  0  0  0  0
    2.7254   -2.0723   -0.5622 C   0  0  0  0  0  0  0  0  0  0  0  0
    2.0747   -2.6322   -1.4287 O   0  0  0  0  0  0  0  0  0  0  0  0
    2.4022   -0.7286    0.0012 C   0  0  0  0  0  0  0  0  0  0  0  0
    3.4411   -0.0014    0.6122 C   0  0  0  0  0  0  0  0  0  0  0  0
    3.2023    1.2735    1.1178 C   0  0  0  0  0  0  0  0  0  0  0  0
    4.6082    2.2407    1.9306 Br  0  0  0  0  0  0  0  0  0  0  0  0
    1.9408    1.8437    1.0188 C   0  0  0  0  0  0  0  0  0  0  0  0
    0.9031    1.1294    0.4163 C   0  0  0  0  0  0  0  0  0  0  0  0
    1.1010   -0.1723   -0.0884 C   0  0  0  0  0  0  0  0  0  0  0  0
   -0.0445   -0.9430   -0.7344 C   0  0  0  0  0  0  0  0  0  0  0  0
   -1.4462   -0.4190   -0.4935 C   0  0  0  0  0  0  0  0  0  0  0  0
   -2.0957    0.3533   -1.4676 C   0  0  0  0  0  0  0  0  0  0  0  0
   -3.3804    0.8475   -1.2367 C   0  0  0  0  0  0  0  0  0  0  0  0
   -4.0272    0.5764   -0.0323 C   0  0  0  0  0  0  0  0  0  0  0  0
   -3.3913   -0.1893    0.9432 C   0  0  0  0  0  0  0  0  0  0  0  0
   -2.1069   -0.6851    0.7154 C   0  0  0  0  0  0  0  0  0  0  0  0
    4.4453   -0.4130    0.6823 H   0  0  0  0  0  0  0  0  0  0  0  0
    1.7485    2.8425    1.4035 H   0  0  0  0  0  0  0  0  0  0  0  0
   -0.0712    1.6125    0.3539 H   0  0  0  0  0  0  0  0  0  0  0  0
   -0.0374   -1.9763   -0.3645 H   0  0  0  0  0  0  0  0  0  0  0  0
    0.1347   -0.9835   -1.8164 H   0  0  0  0  0  0  0  0  0  0  0  0
   -1.6038    0.5742   -2.4125 H   0  0  0  0  0  0  0  0  0  0  0  0
   -3.8777    1.4429   -1.9981 H   0  0  0  0  0  0  0  0  0  0  0  0
   -5.0284    0.9602    0.1452 H   0  0  0  0  0  0  0  0  0  0  0  0
   -3.8967   -0.4019    1.8817 H   0  0  0  0  0  0  0  0  0  0  0  0
   -1.6220   -1.2802    1.4862 H   0  0  0  0  0  0  0  0  0  0  0  0
  1  2  1  0
  2  3  2  0
  2  4  1  0
  4  5  1  0
  5  6  2  0
  6  7  1  0
  6  8  1  0
  8  9  2  0
  9 10  1  0
 10 11  1  0
 11 12  1  0
 12 13  2  0
 13 14  1  0
 14 15  2  0
 15 16  1  0
 16 17  2  0
 10  4  2  0
 17 12  1  0
  5 18  1  0
  8 19  1  0
  9 20  1  0
 11 21  1  0
 11 22  1  0
 13 23  1  0
 14 24  1  0
 15 25  1  0
 16 26  1  0
 17 27  1  0
M  CHG  1   1   1
M  RAD  1   1   2
M  END
>  <Rank>  (19) 
19

>  <Score>  (19) 
0.6290

>  <Pharma_Score>  (19) 
0.5000

>  <QED>  (19) 
0.8540

>  <MW>  (19) 
288.14

>  <LogP>  (19) 
3.25

>  <PSA>  (19) 
39.4

>  <SA_Score>  (19) 
2.37

>  <HBD>  (19) 
0

>  <HBA>  (19) 
1

>  <Lip_Violations>  (19) 
0

>  <SMILES>  (19) 
[N+]C(=O)c1cc(Br)ccc1Cc1ccccc1

$$$$
Candidata_020
     RDKit          3D

  8  7  0  0  0  0  0  0  0  0999 V2000
    2.3781    1.0441    0.6155 O   0  0  0  0  0  0  0  0  0  0  0  0
    1.5354    0.2835    0.3093 C   0  0  0  0  0  0  0  0  0  0  0  0
    0.6387   -0.5853   -0.0299 C   0  0  0  0  0  0  0  0  0  0  0  0
   -0.7661   -0.2447   -0.1776 C   0  0  0  0  0  0  0  0  0  0  0  0
   -1.6291   -1.0435   -0.4956 O   0  0  0  0  0  0  0  0  0  0  0  0
   -1.0517    1.0407    0.0666 O   0  0  0  0  0  0  0  0  0  0  0  0
    0.9143   -1.6124   -0.2174 H   0  0  0  0  0  0  0  0  0  0  0  0
   -2.0197    1.1175   -0.0708 H   0  0  0  0  0  0  0  0  0  0  0  0
  1  2  2  0
  2  3  2  0
  3  4  1  0
  4  5  2  0
  4  6  1  0
  3  7  1  0
  6  8  1  0
M  END
>  <Rank>  (20) 
20

>  <Score>  (20) 
0.6210

>  <Pharma_Score>  (20) 
1.0000

>  <QED>  (20) 
0.3440

>  <MW>  (20) 
86.05

>  <LogP>  (20) 
-0.54

>  <PSA>  (20) 
54.4

>  <SA_Score>  (20) 
3.73

>  <HBD>  (20) 
1

>  <HBA>  (20) 
2

>  <Lip_Violations>  (20) 
0

>  <SMILES>  (20) 
O=C=CC(=O)O

$$$$
Candidata_021
     RDKit          3D

 16 15  0  0  0  0  0  0  0  0999 V2000
   -2.6065    0.8239   -1.4386 O   0  0  0  0  0  0  0  0  0  0  0  0
   -2.6461    0.0979   -0.4644 C   0  0  0  0  0  0  0  0  0  0  0  0
   -3.7749   -0.5028   -0.0585 O   0  0  0  0  0  0  0  0  0  0  0  0
   -1.5363   -0.2562    0.4303 C   0  0  0  0  0  0  0  0  0  0  0  0
   -0.3075    0.2388    0.2110 C   0  0  0  0  0  0  0  0  0  0  0  0
    0.8757   -0.0539    1.0777 C   0  0  0  0  0  0  0  0  0  0  0  0
    1.9941   -1.2164    0.2437 S   0  0  0  0  0  2  0  0  0  0  0  0
    2.8062   -0.1067   -0.9242 C   0  0  0  0  0  0  0  0  0  0  0  0
    4.1403    0.9761   -0.0213 Br  0  0  0  0  0  0  0  0  0  0  0  0
   -4.4446   -0.2104   -0.7111 H   0  0  0  0  0  0  0  0  0  0  0  0
   -1.7550   -0.9294    1.2504 H   0  0  0  0  0  0  0  0  0  0  0  0
   -0.1503    0.9193   -0.6242 H   0  0  0  0  0  0  0  0  0  0  0  0
    1.3913    0.8720    1.3478 H   0  0  0  0  0  0  0  0  0  0  0  0
    0.5592   -0.5224    2.0161 H   0  0  0  0  0  0  0  0  0  0  0  0
    3.3461   -0.6924   -1.6723 H   0  0  0  0  0  0  0  0  0  0  0  0
    2.1082    0.5626   -1.4310 H   0  0  0  0  0  0  0  0  0  0  0  0
  1  2  2  0
  2  3  1  0
  2  4  1  0
  4  5  2  3
  5  6  1  0
  6  7  1  0
  7  8  1  0
  8  9  1  0
  3 10  1  0
  4 11  1  0
  5 12  1  0
  6 13  1  0
  6 14  1  0
  8 15  1  0
  8 16  1  0
M  CHG  1   7  -1
M  RAD  1   7   2
M  END
>  <Rank>  (21) 
21

>  <Score>  (21) 
0.5790

>  <Pharma_Score>  (21) 
1.0000

>  <QED>  (21) 
0.3270

>  <MW>  (21) 
211.08

>  <LogP>  (21) 
1.06

>  <PSA>  (21) 
37.3

>  <SA_Score>  (21) 
4.63

>  <HBD>  (21) 
1

>  <HBA>  (21) 
2

>  <Lip_Violations>  (21) 
0

>  <SMILES>  (21) 
O=C(O)C=CC[S-]CBr

$$$$
Candidata_022
     RDKit          3D

 39 38  0  0  0  0  0  0  0  0999 V2000
    7.0497    0.5470   -2.6775 C   0  0  0  0  0  0  0  0  0  0  0  0
    6.8208   -0.6370   -2.0978 C   0  0  0  0  0  0  0  0  0  0  0  0
    5.5012   -1.0805   -1.7113 C   0  0  0  0  0  0  0  0  0  0  0  0
    5.2732   -2.2697   -1.1312 C   0  0  0  0  0  0  0  0  0  0  0  0
    3.9854   -2.7829   -0.7177 C   0  0  0  0  0  0  0  0  0  0  0  0
    2.8652   -2.1290   -0.8193 C   0  0  0  0  0  0  0  0  0  0  0  0
    1.7437   -1.4764   -0.9194 C   0  0  0  0  0  0  0  0  0  0  0  0
    1.5417   -0.2270   -0.2247 C   0  0  0  0  0  0  0  0  0  0  0  0
    0.4468    0.5512   -0.2375 C   0  0  0  0  0  0  0  0  0  0  0  0
   -0.7903    0.3047   -0.9450 C   0  0  0  0  0  0  0  0  0  0  0  0
   -1.8657    1.1097   -0.9705 C   0  0  0  0  0  0  0  0  0  0  0  0
   -2.0546    2.4519   -0.3253 C   0  0  0  0  0  0  0  0  0  0  0  0
   -2.9634    2.3138    0.8180 C   0  0  0  0  0  0  0  0  0  0  0  0
   -3.7037    2.1482    1.7489 C   0  0  0  0  0  0  0  0  0  0  0  0
   -4.5806    1.8888    2.8387 C   0  0  0  0  0  0  0  0  0  0  0  0
   -4.7192    0.6793    3.4111 C   0  0  0  0  0  0  0  0  0  0  0  0
   -5.8542    0.4600    4.8940 Br  0  0  0  0  0  0  0  0  0  0  0  0
   -4.0018   -0.5189    3.0158 C   0  0  0  0  0  0  0  0  0  0  0  0
   -4.0640   -1.1801    1.8484 C   0  0  0  0  0  0  0  0  0  0  0  0
   -4.9126   -0.8942    0.6838 C   0  0  0  0  0  0  0  0  0  0  0  0
   -4.6624   -1.2610   -0.4514 O   0  0  0  0  0  0  0  0  0  0  0  0
   -6.0507   -0.2519    0.9779 O   0  0  0  0  0  0  0  0  0  0  0  0
    6.2504    1.2489   -2.8934 H   0  0  0  0  0  0  0  0  0  0  0  0
    8.0580    0.8403   -2.9523 H   0  0  0  0  0  0  0  0  0  0  0  0
    7.6600   -1.3020   -1.9055 H   0  0  0  0  0  0  0  0  0  0  0  0
    4.6747   -0.4016   -1.9124 H   0  0  0  0  0  0  0  0  0  0  0  0
    6.1071   -2.9428   -0.9389 H   0  0  0  0  0  0  0  0  0  0  0  0
    3.9740   -3.7803   -0.2878 H   0  0  0  0  0  0  0  0  0  0  0  0
    0.9607   -1.8817   -1.5490 H   0  0  0  0  0  0  0  0  0  0  0  0
    2.3871    0.1137    0.3748 H   0  0  0  0  0  0  0  0  0  0  0  0
    0.4956    1.4589    0.3603 H   0  0  0  0  0  0  0  0  0  0  0  0
   -0.8714   -0.6309   -1.4945 H   0  0  0  0  0  0  0  0  0  0  0  0
   -2.7280    0.7578   -1.5389 H   0  0  0  0  0  0  0  0  0  0  0  0
   -1.1085    2.8961   -0.0036 H   0  0  0  0  0  0  0  0  0  0  0  0
   -2.4813    3.1395   -1.0645 H   0  0  0  0  0  0  0  0  0  0  0  0
   -5.1506    2.7334    3.2139 H   0  0  0  0  0  0  0  0  0  0  0  0
   -3.3257   -0.9031    3.7784 H   0  0  0  0  0  0  0  0  0  0  0  0
   -3.4064   -2.0298    1.6913 H   0  0  0  0  0  0  0  0  0  0  0  0
   -6.5002   -0.1585    0.1139 H   0  0  0  0  0  0  0  0  0  0  0  0
  1  2  2  0
  2  3  1  0
  3  4  2  3
  4  5  1  0
  5  6  2  0
  6  7  2  0
  7  8  1  0
  8  9  2  3
  9 10  1  0
 10 11  2  3
 11 12  1  0
 12 13  1  0
 13 14  3  0
 14 15  1  0
 15 16  2  3
 16 17  1  0
 16 18  1  0
 18 19  2  3
 19 20  1  0
 20 21  2  0
 20 22  1  0
  1 23  1  0
  1 24  1  0
  2 25  1  0
  3 26  1  0
  4 27  1  0
  5 28  1  0
  7 29  1  0
  8 30  1  0
  9 31  1  0
 10 32  1  0
 11 33  1  0
 12 34  1  0
 12 35  1  0
 15 36  1  0
 18 37  1  0
 19 38  1  0
 22 39  1  0
M  END
>  <Rank>  (22) 
22

>  <Score>  (22) 
0.5750

>  <Pharma_Score>  (22) 
1.0000

>  <QED>  (22) 
0.3060

>  <MW>  (22) 
357.25

>  <LogP>  (22) 
4.87

>  <PSA>  (22) 
37.3

>  <SA_Score>  (22) 
4.56

>  <HBD>  (22) 
1

>  <HBA>  (22) 
1

>  <Lip_Violations>  (22) 
0

>  <SMILES>  (22) 
C=CC=CC=C=CC=CC=CCC#CC=C(Br)C=CC(=O)O

$$$$
Candidata_023
     RDKit          3D

 27 28  0  0  0  0  0  0  0  0999 V2000
   -4.1925    0.0880   -2.0313 O   0  0  0  0  0  0  0  0  0  0  0  0
   -3.3676    0.0229   -1.1258 C   0  0  0  0  0  0  0  0  0  0  0  0
   -3.7073    0.5903    0.1928 C   0  0  0  0  0  0  0  0  0  0  0  0
   -3.2077    0.2628    1.3942 C   0  0  0  0  0  0  0  0  0  0  0  0
   -2.1719   -0.7086    1.6643 C   0  0  0  0  0  0  0  0  0  0  0  0
   -2.2598   -1.5869    3.3158 Br  0  0  0  0  0  0  0  0  0  0  0  0
   -1.1576   -0.9368    0.8180 C   0  0  0  0  0  0  0  0  0  0  0  0
   -1.0244   -0.2224   -0.4949 C   0  0  0  0  0  0  0  0  0  0  0  0
    0.2271   -0.6434   -1.2906 C   0  0  0  0  0  0  0  0  0  0  0  0
    1.5237   -0.1437   -0.6992 C   0  0  0  0  0  0  0  0  0  0  0  0
    1.8764    1.2093   -0.8026 C   0  0  0  0  0  0  0  0  0  0  0  0
    3.0683    1.6746   -0.2451 C   0  0  0  0  0  0  0  0  0  0  0  0
    3.9194    0.7934    0.4185 C   0  0  0  0  0  0  0  0  0  0  0  0
    3.5814   -0.5543    0.5223 C   0  0  0  0  0  0  0  0  0  0  0  0
    2.3903   -1.0221   -0.0348 C   0  0  0  0  0  0  0  0  0  0  0  0
   -2.1643   -0.5606   -1.3128 O   0  0  0  0  0  0  0  0  0  0  0  0
   -4.5251    1.3046    0.1434 H   0  0  0  0  0  0  0  0  0  0  0  0
   -3.6302    0.7582    2.2677 H   0  0  0  0  0  0  0  0  0  0  0  0
   -0.3906   -1.6585    1.0841 H   0  0  0  0  0  0  0  0  0  0  0  0
   -0.9958    0.8654   -0.3455 H   0  0  0  0  0  0  0  0  0  0  0  0
    0.1486   -0.2659   -2.3197 H   0  0  0  0  0  0  0  0  0  0  0  0
    0.2534   -1.7361   -1.4027 H   0  0  0  0  0  0  0  0  0  0  0  0
    1.2285    1.9107   -1.3239 H   0  0  0  0  0  0  0  0  0  0  0  0
    3.3350    2.7248   -0.3315 H   0  0  0  0  0  0  0  0  0  0  0  0
    4.8483    1.1560    0.8508 H   0  0  0  0  0  0  0  0  0  0  0  0
    4.2479   -1.2427    1.0357 H   0  0  0  0  0  0  0  0  0  0  0  0
    2.1466   -2.0787    0.0529 H   0  0  0  0  0  0  0  0  0  0  0  0
  1  2  2  0
  2  3  1  0
  3  4  2  0
  4  5  1  0
  5  6  1  0
  5  7  2  0
  7  8  1  0
  8  9  1  0
  9 10  1  0
 10 11  2  0
 11 12  1  0
 12 13  2  0
 13 14  1  0
 14 15  2  0
  8 16  1  0
 16  2  1  0
 15 10  1  0
  3 17  1  0
  4 18  1  0
  7 19  1  0
  8 20  1  0
  9 21  1  0
  9 22  1  0
 11 23  1  0
 12 24  1  0
 13 25  1  0
 14 26  1  0
 15 27  1  0
M  END
>  <Rank>  (23) 
23

>  <Score>  (23) 
0.5730

>  <Pharma_Score>  (23) 
0.5000

>  <QED>  (23) 
0.7780

>  <MW>  (23) 
279.13

>  <LogP>  (23) 
2.99

>  <PSA>  (23) 
26.3

>  <SA_Score>  (23) 
3.11

>  <HBD>  (23) 
0

>  <HBA>  (23) 
2

>  <Lip_Violations>  (23) 
0

>  <SMILES>  (23) 
O=C1C=CC(Br)=CC(Cc2ccccc2)O1

$$$$
Candidata_024
     RDKit          3D

 16 15  0  0  0  0  0  0  0  0999 V2000
   -2.4338    0.3889   -0.1326 C   0  0  0  0  0  0  0  0  0  0  0  0
   -1.1695   -0.3687   -0.5039 C   0  0  0  0  0  0  0  0  0  0  0  0
    0.0581    0.2200    0.1849 C   0  0  0  0  0  0  0  0  0  0  0  0
    1.3357   -0.5200   -0.1702 C   0  0  0  0  0  0  0  0  0  0  0  0
    2.5998   -0.0043    0.4674 C   0  0  0  0  0  0  0  0  0  0  0  0
    1.3584   -1.4859   -0.9315 O   0  0  0  0  0  0  0  0  0  0  0  0
   -2.3632    1.4399   -0.4305 H   0  0  0  0  0  0  0  0  0  0  0  0
   -2.6126    0.3485    0.9467 H   0  0  0  0  0  0  0  0  0  0  0  0
   -3.3005   -0.0497   -0.6370 H   0  0  0  0  0  0  0  0  0  0  0  0
   -1.0375   -0.3406   -1.5921 H   0  0  0  0  0  0  0  0  0  0  0  0
   -1.2849   -1.4231   -0.2261 H   0  0  0  0  0  0  0  0  0  0  0  0
   -0.0661    0.1741    1.2725 H   0  0  0  0  0  0  0  0  0  0  0  0
    0.1839    1.2683   -0.1082 H   0  0  0  0  0  0  0  0  0  0  0  0
    2.5148   -0.0703    1.5548 H   0  0  0  0  0  0  0  0  0  0  0  0
    2.7667    1.0321    0.1637 H   0  0  0  0  0  0  0  0  0  0  0  0
    3.4507   -0.6092    0.1421 H   0  0  0  0  0  0  0  0  0  0  0  0
  1  2  1  0
  2  3  1  0
  3  4  1  0
  4  5  1  0
  4  6  2  0
  1  7  1  0
  1  8  1  0
  1  9  1  0
  2 10  1  0
  2 11  1  0
  3 12  1  0
  3 13  1  0
  5 14  1  0
  5 15  1  0
  5 16  1  0
M  END
>  <Rank>  (24) 
24

>  <Score>  (24) 
0.5160

>  <Pharma_Score>  (24) 
0.5000

>  <QED>  (24) 
0.4960

>  <MW>  (24) 
86.13

>  <LogP>  (24) 
1.38

>  <PSA>  (24) 
17.1

>  <SA_Score>  (24) 
2.07

>  <HBD>  (24) 
0

>  <HBA>  (24) 
1

>  <Lip_Violations>  (24) 
0

>  <SMILES>  (24) 
CCCC(C)=O

$$$$
Candidata_025
     RDKit          3D

 28 29  0  0  0  0  0  0  0  0999 V2000
   -0.4720   -2.5279   -2.1579 O   0  0  0  0  0  0  0  0  0  0  0  0
   -0.4298   -2.8594   -1.0071 C   0  0  0  0  0  0  0  0  0  0  0  0
   -0.1413   -3.8105   -0.1696 O   0  0  0  0  0  0  0  0  0  0  0  0
   -0.5763   -2.4167    0.3204 C   0  0  0  0  0  0  0  0  0  0  0  0
   -2.3497   -2.4172    1.0528 Br  0  0  0  0  0  0  0  0  0  0  0  0
    0.5220   -1.7377    1.0813 C   0  0  0  0  0  0  0  0  0  0  0  0
    0.2379   -0.2766    1.3687 C   0  0  0  0  0  0  0  0  0  0  0  0
   -0.2032    0.0566    2.6675 C   0  0  0  0  0  0  0  0  0  0  0  0
   -0.4816    1.3767    3.0170 C   0  0  0  0  0  0  0  0  0  0  0  0
   -1.0747    1.7810    4.7653 Br  0  0  0  0  0  0  0  0  0  0  0  0
   -0.3229    2.3945    2.0886 C   0  0  0  0  0  0  0  0  0  0  0  0
    0.1143    2.0845    0.8016 C   0  0  0  0  0  0  0  0  0  0  0  0
    0.3946    0.7562    0.4183 C   0  0  0  0  0  0  0  0  0  0  0  0
    0.8607    0.5329   -1.0072 C   0  0  0  0  0  0  0  0  0  0  0  0
   -0.2722    0.7418   -2.0225 C   0  0  0  0  0  0  0  0  0  0  0  0
    0.1547    0.4410   -3.4511 C   0  0  0  0  0  0  0  0  0  0  0  0
    1.2906    1.8615   -4.1506 Br  0  0  0  0  0  0  0  0  0  0  0  0
    0.6793   -2.2760    2.0257 H   0  0  0  0  0  0  0  0  0  0  0  0
    1.4826   -1.8202    0.5577 H   0  0  0  0  0  0  0  0  0  0  0  0
   -0.3324   -0.7247    3.4149 H   0  0  0  0  0  0  0  0  0  0  0  0
   -0.5327    3.4278    2.3513 H   0  0  0  0  0  0  0  0  0  0  0  0
    0.2403    2.8967    0.0862 H   0  0  0  0  0  0  0  0  0  0  0  0
    1.2893   -0.4652   -1.1308 H   0  0  0  0  0  0  0  0  0  0  0  0
    1.6870    1.2276   -1.2036 H   0  0  0  0  0  0  0  0  0  0  0  0
   -0.6656    1.7637   -1.9540 H   0  0  0  0  0  0  0  0  0  0  0  0
   -1.1064    0.0786   -1.7630 H   0  0  0  0  0  0  0  0  0  0  0  0
   -0.7120    0.4015   -4.1167 H   0  0  0  0  0  0  0  0  0  0  0  0
    0.7192   -0.4906   -3.5379 H   0  0  0  0  0  0  0  0  0  0  0  0
  1  2  2  0
  2  3  1  0
  3  4  1  0
  4  5  1  0
  4  6  1  0
  6  7  1  0
  7  8  1  0
  8  9  2  0
  9 10  1  0
  9 11  1  0
 11 12  2  0
 12 13  1  0
 13 14  1  0
 14 15  1  0
 15 16  1  0
 16 17  1  0
  4  2  1  0
 13  7  2  0
  6 18  1  0
  6 19  1  0
  8 20  1  0
 11 21  1  0
 12 22  1  0
 14 23  1  0
 14 24  1  0
 15 25  1  0
 15 26  1  0
 16 27  1  0
 16 28  1  0
M  END
>  <Rank>  (25) 
25

>  <Score>  (25) 
0.4700

>  <Pharma_Score>  (25) 
0.5000

>  <QED>  (25) 
0.5260

>  <MW>  (25) 
426.93

>  <LogP>  (25) 
3.97

>  <PSA>  (25) 
29.6

>  <SA_Score>  (25) 
3.49

>  <HBD>  (25) 
0

>  <HBA>  (25) 
2

>  <Lip_Violations>  (25) 
0

>  <SMILES>  (25) 
O=C1OC1(Br)Cc1cc(Br)ccc1CCCBr

$$$$
Candidata_026
     RDKit          3D

 17 17  0  0  0  0  0  0  0  0999 V2000
   -1.1840    2.7774    1.1942 O   0  0  0  0  0  0  0  0  0  0  0  0
   -0.8967    1.6685    0.7499 C   0  0  0  0  0  0  0  0  0  0  0  0
   -1.9834    0.7568    0.3882 C   0  0  0  0  0  0  0  0  0  0  0  0
   -1.9847   -0.4754   -0.1300 C   0  0  0  0  0  0  0  0  0  0  0  0
   -0.8825   -1.3872   -0.5265 C   0  0  0  0  0  0  0  0  0  0  0  0
   -1.0757   -1.6846   -2.4574 Br  0  0  0  0  0  0  0  0  0  0  0  0
    0.5307   -0.9935   -0.3004 C   0  0  0  0  0  0  0  0  0  0  0  0
    1.0843    0.1333    0.1721 C   0  0  0  0  0  0  0  0  0  0  0  0
    2.5737    0.2830    0.3104 C   0  0  0  0  0  0  0  0  0  0  0  0
    3.2307    1.3659   -1.1664 Br  0  0  0  0  0  0  0  0  0  0  0  0
    0.3886    1.2823    0.6177 O   0  0  0  0  0  0  0  0  0  0  0  0
   -2.9534    1.2116    0.5885 H   0  0  0  0  0  0  0  0  0  0  0  0
   -2.9749   -0.9085   -0.2885 H   0  0  0  0  0  0  0  0  0  0  0  0
   -1.0535   -2.3671   -0.0672 H   0  0  0  0  0  0  0  0  0  0  0  0
    1.2278   -1.7858   -0.5828 H   0  0  0  0  0  0  0  0  0  0  0  0
    2.8455    0.7934    1.2385 H   0  0  0  0  0  0  0  0  0  0  0  0
    3.1075   -0.6701    0.2597 H   0  0  0  0  0  0  0  0  0  0  0  0
  1  2  2  0
  2  3  1  0
  3  4  2  0
  4  5  1  0
  5  6  1  0
  5  7  1  0
  7  8  2  0
  8  9  1  0
  9 10  1  0
  8 11  1  0
 11  2  1  0
  3 12  1  0
  4 13  1  0
  5 14  1  0
  7 15  1  0
  9 16  1  0
  9 17  1  0
M  END
>  <Rank>  (26) 
26

>  <Score>  (26) 
0.4310

>  <Pharma_Score>  (26) 
0.5000

>  <QED>  (26) 
0.5440

>  <MW>  (26) 
281.93

>  <LogP>  (26) 
2.14

>  <PSA>  (26) 
26.3

>  <SA_Score>  (26) 
4.62

>  <HBD>  (26) 
0

>  <HBA>  (26) 
2

>  <Lip_Violations>  (26) 
0

>  <SMILES>  (26) 
O=C1C=CC(Br)C=C(CBr)O1

$$$$
Candidata_027
     RDKit          3D

 20 20  0  0  0  0  0  0  0  0999 V2000
   -1.6178   -1.3565    0.8601 C   0  0  0  0  0  0  0  0  0  0  0  0
   -1.0875   -0.7618   -0.4440 C   0  0  0  0  0  0  0  0  0  0  0  0
   -1.5878    0.6323   -0.6686 C   0  0  0  0  0  0  0  0  0  0  0  0
   -1.0999    1.7731   -0.1654 C   0  0  0  0  0  0  0  0  0  0  0  0
    0.0109    1.9362    0.7806 C   0  0  0  0  0  0  0  0  0  0  0  0
   -0.0109    2.8807    1.5655 O   0  0  0  0  0  0  0  0  0  0  0  0
    1.0679    1.0889    0.7233 O   0  0  0  0  0  0  0  0  0  0  0  0
    1.3402   -0.0579   -0.0686 C   0  0  0  0  0  0  0  0  0  0  0  0
    2.8074   -0.3346   -0.2091 C   0  0  0  0  0  0  0  0  0  0  0  0
    3.5306    0.8544   -1.5697 Br  0  0  0  0  0  0  0  0  0  0  0  0
    0.4011   -0.8895   -0.5483 C   0  0  0  0  0  0  0  0  0  0  0  0
   -1.3138   -2.4042    0.9640 H   0  0  0  0  0  0  0  0  0  0  0  0
   -1.2458   -0.8134    1.7365 H   0  0  0  0  0  0  0  0  0  0  0  0
   -2.7129   -1.3246    0.8879 H   0  0  0  0  0  0  0  0  0  0  0  0
   -1.4990   -1.3628   -1.2675 H   0  0  0  0  0  0  0  0  0  0  0  0
   -2.4742    0.7076   -1.2978 H   0  0  0  0  0  0  0  0  0  0  0  0
   -1.6142    2.7065   -0.3780 H   0  0  0  0  0  0  0  0  0  0  0  0
    3.0216   -1.3544   -0.5408 H   0  0  0  0  0  0  0  0  0  0  0  0
    3.3498   -0.1389    0.7197 H   0  0  0  0  0  0  0  0  0  0  0  0
    0.7343   -1.7811   -1.0796 H   0  0  0  0  0  0  0  0  0  0  0  0
  1  2  1  0
  2  3  1  0
  3  4  2  0
  4  5  1  0
  5  6  2  0
  5  7  1  0
  7  8  1  0
  8  9  1  0
  9 10  1  0
  8 11  2  0
 11  2  1  0
  1 12  1  0
  1 13  1  0
  1 14  1  0
  2 15  1  0
  3 16  1  0
  4 17  1  0
  9 18  1  0
  9 19  1  0
 11 20  1  0
M  END
>  <Rank>  (27) 
27

>  <Score>  (27) 
0.4270

>  <Pharma_Score>  (27) 
0.5000

>  <QED>  (27) 
0.4960

>  <MW>  (27) 
217.06

>  <LogP>  (27) 
2.01

>  <PSA>  (27) 
26.3

>  <SA_Score>  (27) 
4.29

>  <HBD>  (27) 
0

>  <HBA>  (27) 
2

>  <Lip_Violations>  (27) 
0

>  <SMILES>  (27) 
CC1C=CC(=O)OC(CBr)=C1

$$$$
Candidata_028
     RDKit          3D

 27 27  0  0  0  0  0  0  0  0999 V2000
    4.6401   -0.7868   -1.6451 O   0  0  0  0  0  0  0  0  0  0  0  0
    5.4565   -0.9129   -0.7453 C   0  0  0  0  0  0  0  0  0  0  0  0
    5.1645   -0.7387    0.6990 C   0  0  0  0  0  0  0  0  0  0  0  0
    4.0074   -0.3486    1.2557 C   0  0  0  0  0  0  0  0  0  0  0  0
    2.7451   -0.0156    0.6187 C   0  0  0  0  0  0  0  0  0  0  0  0
    2.0987    1.6992    1.0525 Br  0  0  0  0  0  0  0  0  0  0  0  0
    2.0652   -0.8930   -0.1398 C   0  0  0  0  0  0  0  0  0  0  0  0
    0.8010   -0.6239   -0.7335 C   0  0  0  0  0  0  0  0  0  0  0  0
   -0.2678   -0.3886   -1.2280 C   0  0  0  0  0  0  0  0  0  0  0  0
   -1.5707   -0.0737   -1.8275 C   0  0  0  0  0  0  0  0  0  0  0  0
   -2.6026    0.2884   -0.7867 C   0  0  0  0  0  0  0  0  0  0  0  0
   -3.5358   -0.6600   -0.3439 C   0  0  0  0  0  0  0  0  0  0  0  0
   -4.4807   -0.3235    0.6272 C   0  0  0  0  0  0  0  0  0  0  0  0
   -4.4983    0.9601    1.1698 C   0  0  0  0  0  0  0  0  0  0  0  0
   -3.5692    1.9081    0.7454 C   0  0  0  0  0  0  0  0  0  0  0  0
   -2.6242    1.5744   -0.2259 C   0  0  0  0  0  0  0  0  0  0  0  0
    6.5058   -1.1775   -0.9593 H   0  0  0  0  0  0  0  0  0  0  0  0
    6.0188   -0.9288    1.3419 H   0  0  0  0  0  0  0  0  0  0  0  0
    3.9923   -0.2273    2.3394 H   0  0  0  0  0  0  0  0  0  0  0  0
    2.4826   -1.8764   -0.3343 H   0  0  0  0  0  0  0  0  0  0  0  0
   -1.4689    0.7583   -2.5352 H   0  0  0  0  0  0  0  0  0  0  0  0
   -1.9242   -0.9268   -2.4193 H   0  0  0  0  0  0  0  0  0  0  0  0
   -3.5293   -1.6686   -0.7509 H   0  0  0  0  0  0  0  0  0  0  0  0
   -5.2005   -1.0650    0.9634 H   0  0  0  0  0  0  0  0  0  0  0  0
   -5.2323    1.2201    1.9277 H   0  0  0  0  0  0  0  0  0  0  0  0
   -3.5762    2.9067    1.1740 H   0  0  0  0  0  0  0  0  0  0  0  0
   -1.8971    2.3205   -0.5400 H   0  0  0  0  0  0  0  0  0  0  0  0
  1  2  2  0
  2  3  1  0
  3  4  2  3
  4  5  1  0
  5  6  1  0
  5  7  2  3
  7  8  1  0
  8  9  3  0
  9 10  1  0
 10 11  1  0
 11 12  2  0
 12 13  1  0
 13 14  2  0
 14 15  1  0
 15 16  2  0
 16 11  1  0
  2 17  1  0
  3 18  1  0
  4 19  1  0
  7 20  1  0
 10 21  1  0
 10 22  1  0
 12 23  1  0
 13 24  1  0
 14 25  1  0
 15 26  1  0
 16 27  1  0
M  END
>  <Rank>  (28) 
28

>  <Score>  (28) 
0.4210

>  <Pharma_Score>  (28) 
0.5000

>  <QED>  (28) 
0.3580

>  <MW>  (28) 
275.14

>  <LogP>  (28) 
3.27

>  <PSA>  (28) 
17.1

>  <SA_Score>  (28) 
3.23

>  <HBD>  (28) 
0

>  <HBA>  (28) 
1

>  <Lip_Violations>  (28) 
0

>  <SMILES>  (28) 
O=CC=CC(Br)=CC#CCc1ccccc1

$$$$
