Candidata_001
     RDKit          3D

 28 29  0  0  0  0  0  0  0  0999 V2000
   -1.5909   -0.4401   -2.5824 O   0  0  0  0  0  0  0  0  0  0  0  0
   -1.5490   -0.7589   -1.4089 C   0  0  0  0  0  0  0  0  0  0  0  0
   -1.4164   -2.0421   -1.0353 O   0  0  0  0  0  0  0  0  0  0  0  0
   -1.7687    0.1481   -0.2600 C   0  0  0  0  0  0  0  0  0  0  0  0
   -2.7589    1.1268   -0.4451 C   0  0  0  0  0  0  0  0  0  0  0  0
   -3.0544    2.0219    0.5782 C   0  0  0  0  0  0  0  0  0  0  0  0
   -4.3969    3.3282    0.3262 Br  0  0  0  0  0  0  0  0  0  0  0  0
   -2.3693    1.9607    1.7869 C   0  0  0  0  0  0  0  0  0  0  0  0
   -1.3703    1.0022    1.9694 C   0  0  0  0  0  0  0  0  0  0  0  0
   -1.0445    0.0860    0.9494 C   0  0  0  0  0  0  0  0  0  0  0  0
    0.0936   -0.8853    1.1960 C   0  0  0  0  0  0  0  0  0  0  0  0
    1.3107   -0.6738    0.3213 C   0  0  0  0  0  0  0  0  0  0  0  0
    1.8598   -1.7491   -0.3925 C   0  0  0  0  0  0  0  0  0  0  0  0
    2.9926   -1.5703   -1.1883 C   0  0  0  0  0  0  0  0  0  0  0  0
    3.5954   -0.3173   -1.2726 C   0  0  0  0  0  0  0  0  0  0  0  0
    3.0691    0.7564   -0.5579 C   0  0  0  0  0  0  0  0  0  0  0  0
    1.9367    0.5792    0.2389 C   0  0  0  0  0  0  0  0  0  0  0  0
   -1.3288   -2.5172   -1.8882 H   0  0  0  0  0  0  0  0  0  0  0  0
   -3.2972    1.1792   -1.3897 H   0  0  0  0  0  0  0  0  0  0  0  0
   -2.5970    2.6577    2.5897 H   0  0  0  0  0  0  0  0  0  0  0  0
   -0.8339    0.9832    2.9171 H   0  0  0  0  0  0  0  0  0  0  0  0
   -0.2859   -1.9100    1.1114 H   0  0  0  0  0  0  0  0  0  0  0  0
    0.4332   -0.8073    2.2381 H   0  0  0  0  0  0  0  0  0  0  0  0
    1.4043   -2.7353   -0.3360 H   0  0  0  0  0  0  0  0  0  0  0  0
    3.4052   -2.4092   -1.7425 H   0  0  0  0  0  0  0  0  0  0  0  0
    4.4759   -0.1776   -1.8940 H   0  0  0  0  0  0  0  0  0  0  0  0
    3.5403    1.7338   -0.6211 H   0  0  0  0  0  0  0  0  0  0  0  0
    1.5451    1.4301    0.7919 H   0  0  0  0  0  0  0  0  0  0  0  0
  1  2  2  0
  2  3  1  0
  2  4  1  0
  4  5  1  0
  5  6  2  0
  6  7  1  0
  6  8  1  0
  8  9  2  0
  9 10  1  0
 10 11  1  0
 11 12  1  0
 12 13  2  0
 13 14  1  0
 14 15  2  0
 15 16  1  0
 16 17  2  0
 10  4  2  0
 17 12  1  0
  3 18  1  0
  5 19  1  0
  8 20  1  0
  9 21  1  0
 11 22  1  0
 11 23  1  0
 13 24  1  0
 14 25  1  0
 15 26  1  0
 16 27  1  0
 17 28  1  0
M  END
>  <Rank>  (1) 
1

>  <Score>  (1) 
0.9110

>  <Pharma_Score>  (1) 
1.0000

>  <QED>  (1) 
0.9350

>  <MW>  (1) 
291.14

>  <LogP>  (1) 
3.74

>  <PSA>  (1) 
37.3

>  <SA_Score>  (1) 
1.66

>  <HBD>  (1) 
1

>  <HBA>  (1) 
1

>  <Lip_Violations>  (1) 
0

>  <SMILES>  (1) 
O=C(O)c1cc(Br)ccc1Cc1ccccc1

$$$$
Candidata_002
     RDKit          3D

 30 31  0  0  0  0  0  0  0  0999 V2000
   -0.6180    0.0231   -2.5622 N   0  0  0  0  0  0  0  0  0  0  0  0
   -0.1466   -0.4646   -1.2523 C   0  0  0  0  0  0  0  0  0  0  0  0
   -1.3050   -0.3525   -0.2651 C   0  0  0  0  0  0  0  0  0  0  0  0
   -1.6264    0.8635    0.3623 C   0  0  0  0  0  0  0  0  0  0  0  0
   -2.7061    0.9458    1.2433 C   0  0  0  0  0  0  0  0  0  0  0  0
   -3.4862   -0.1795    1.4997 C   0  0  0  0  0  0  0  0  0  0  0  0
   -3.1916   -1.3882    0.8732 C   0  0  0  0  0  0  0  0  0  0  0  0
   -2.1118   -1.4738   -0.0071 C   0  0  0  0  0  0  0  0  0  0  0  0
    1.1479    0.2075   -0.7819 C   0  0  0  0  0  0  0  0  0  0  0  0
    1.7388    1.2473   -1.5332 C   0  0  0  0  0  0  0  0  0  0  0  0
    2.8900    1.9086   -1.0939 C   0  0  0  0  0  0  0  0  0  0  0  0
    3.4786    1.5447    0.1103 C   0  0  0  0  0  0  0  0  0  0  0  0
    5.0259    2.4474    0.7113 Br  0  0  0  0  0  0  0  0  0  0  0  0
    2.9381    0.5145    0.8705 C   0  0  0  0  0  0  0  0  0  0  0  0
    1.7929   -0.1666    0.4220 C   0  0  0  0  0  0  0  0  0  0  0  0
    1.3321   -1.2596    1.3073 C   0  0  0  0  0  0  0  0  0  0  0  0
    1.3210   -1.2307    2.5235 O   0  0  0  0  0  0  0  0  0  0  0  0
    1.0279   -2.3763    0.6269 O   0  0  0  0  0  0  0  0  0  0  0  0
   -1.0165    0.9514   -2.4271 H   0  0  0  0  0  0  0  0  0  0  0  0
   -1.4050   -0.5604   -2.8442 H   0  0  0  0  0  0  0  0  0  0  0  0
    0.0981   -1.5203   -1.4172 H   0  0  0  0  0  0  0  0  0  0  0  0
   -1.0342    1.7568    0.1744 H   0  0  0  0  0  0  0  0  0  0  0  0
   -2.9375    1.8893    1.7314 H   0  0  0  0  0  0  0  0  0  0  0  0
   -4.3250   -0.1136    2.1878 H   0  0  0  0  0  0  0  0  0  0  0  0
   -3.8034   -2.2646    1.0707 H   0  0  0  0  0  0  0  0  0  0  0  0
   -1.8974   -2.4253   -0.4897 H   0  0  0  0  0  0  0  0  0  0  0  0
    1.3073    1.5595   -2.4828 H   0  0  0  0  0  0  0  0  0  0  0  0
    3.3122    2.7056   -1.7010 H   0  0  0  0  0  0  0  0  0  0  0  0
    3.4051    0.2269    1.8108 H   0  0  0  0  0  0  0  0  0  0  0  0
    0.7947   -3.0160    1.3325 H   0  0  0  0  0  0  0  0  0  0  0  0
  1  2  1  0
  2  3  1  0
  3  4  2  0
  4  5  1  0
  5  6  2  0
  6  7  1  0
  7  8  2  0
  2  9  1  0
  9 10  1  0
 10 11  2  0
 11 12  1  0
 12 13  1  0
 12 14  2  0
 14 15  1  0
 15 16  1  0
 16 17  2  0
 16 18  1  0
  8  3  1  0
 15  9  2  0
  1 19  1  0
  1 20  1  0
  2 21  1  0
  4 22  1  0
  5 23  1  0
  6 24  1  0
  7 25  1  0
  8 26  1  0
 10 27  1  0
 11 28  1  0
 14 29  1  0
 18 30  1  0
M  END
>  <Rank>  (2) 
2

>  <Score>  (2) 
0.8750

>  <Pharma_Score>  (2) 
1.0000

>  <QED>  (2) 
0.9150

>  <MW>  (2) 
306.16

>  <LogP>  (2) 
3.20

>  <PSA>  (2) 
63.3

>  <SA_Score>  (2) 
2.39

>  <HBD>  (2) 
2

>  <HBA>  (2) 
2

>  <Lip_Violations>  (2) 
0

>  <SMILES>  (2) 
NC(c1ccccc1)c1ccc(Br)cc1C(=O)O

$$$$
Candidata_003
     RDKit          3D

 18 18  0  0  0  0  0  0  0  0999 V2000
   -0.1748    3.0367    0.1307 O   0  0  0  0  0  0  0  0  0  0  0  0
   -0.5542    1.9618   -0.2945 C   0  0  0  0  0  0  0  0  0  0  0  0
   -1.6331    1.8654   -1.0860 O   0  0  0  0  0  0  0  0  0  0  0  0
    0.1442    0.6670   -0.1127 C   0  0  0  0  0  0  0  0  0  0  0  0
    1.5474    0.7424   -0.0864 C   0  0  0  0  0  0  0  0  0  0  0  0
    2.3068   -0.4109    0.0829 C   0  0  0  0  0  0  0  0  0  0  0  0
    4.1933   -0.3002    0.1053 Br  0  0  0  0  0  0  0  0  0  0  0  0
    1.6859   -1.6448    0.2377 C   0  0  0  0  0  0  0  0  0  0  0  0
    0.2915   -1.7243    0.2300 C   0  0  0  0  0  0  0  0  0  0  0  0
   -0.5064   -0.5747    0.0574 C   0  0  0  0  0  0  0  0  0  0  0  0
   -1.9994   -0.7397    0.1181 C   0  0  0  0  0  0  0  0  0  0  0  0
   -2.6619   -0.1028    1.8319 Br  0  0  0  0  0  0  0  0  0  0  0  0
   -1.9572    2.7892   -1.1505 H   0  0  0  0  0  0  0  0  0  0  0  0
    2.0398    1.7067   -0.2001 H   0  0  0  0  0  0  0  0  0  0  0  0
    2.2742   -2.5488    0.3758 H   0  0  0  0  0  0  0  0  0  0  0  0
   -0.1723   -2.6996    0.3747 H   0  0  0  0  0  0  0  0  0  0  0  0
   -2.2890   -1.7947    0.0680 H   0  0  0  0  0  0  0  0  0  0  0  0
   -2.5349   -0.2286   -0.6823 H   0  0  0  0  0  0  0  0  0  0  0  0
  1  2  2  0
  2  3  1  0
  2  4  1  0
  4  5  1  0
  5  6  2  0
  6  7  1  0
  6  8  1  0
  8  9  2  0
  9 10  1  0
 10 11  1  0
 11 12  1  0
 10  4  2  0
  3 13  1  0
  5 14  1  0
  8 15  1  0
  9 16  1  0
 11 17  1  0
 11 18  1  0
M  END
>  <Rank>  (3) 
3

>  <Score>  (3) 
0.8640

>  <Pharma_Score>  (3) 
1.0000

>  <QED>  (3) 
0.8510

>  <MW>  (3) 
293.94

>  <LogP>  (3) 
3.04

>  <PSA>  (3) 
37.3

>  <SA_Score>  (3) 
2.09

>  <HBD>  (3) 
1

>  <HBA>  (3) 
1

>  <Lip_Violations>  (3) 
0

>  <SMILES>  (3) 
O=C(O)c1cc(Br)ccc1CBr

$$$$
Candidata_004
     RDKit          3D

 32 33  0  0  0  0  0  0  0  0999 V2000
   -0.9719    1.1432    1.8767 O   0  0  0  0  0  0  0  0  0  0  0  0
   -0.9199    1.0782    0.6552 C   0  0  0  0  0  0  0  0  0  0  0  0
    0.0979    1.5435   -0.1377 N   0  0  0  0  0  0  0  0  0  0  0  0
    1.3614    1.9571    0.4352 C   0  0  0  0  0  0  0  0  0  0  0  0
    2.3823    0.8580    0.2924 C   0  0  0  0  0  0  0  0  0  0  0  0
    2.3310   -0.2672    1.1288 C   0  0  0  0  0  0  0  0  0  0  0  0
    3.2485   -1.3069    0.9756 C   0  0  0  0  0  0  0  0  0  0  0  0
    4.2281   -1.2324   -0.0123 C   0  0  0  0  0  0  0  0  0  0  0  0
    4.2895   -0.1199   -0.8497 C   0  0  0  0  0  0  0  0  0  0  0  0
    3.3692    0.9197   -0.7017 C   0  0  0  0  0  0  0  0  0  0  0  0
   -2.0323    0.4302   -0.0552 C   0  0  0  0  0  0  0  0  0  0  0  0
   -2.7798    1.2070   -0.9529 C   0  0  0  0  0  0  0  0  0  0  0  0
   -3.8726    0.6464   -1.6141 C   0  0  0  0  0  0  0  0  0  0  0  0
   -4.2159   -0.6829   -1.3739 C   0  0  0  0  0  0  0  0  0  0  0  0
   -5.7006   -1.4390   -2.2669 Br  0  0  0  0  0  0  0  0  0  0  0  0
   -3.4748   -1.4620   -0.4835 C   0  0  0  0  0  0  0  0  0  0  0  0
   -2.3697   -0.9104    0.1868 C   0  0  0  0  0  0  0  0  0  0  0  0
   -1.5689   -1.7939    1.0635 C   0  0  0  0  0  0  0  0  0  0  0  0
   -1.3529   -1.3742    2.3227 O   0  0  0  0  0  0  0  0  0  0  0  0
   -0.9628   -3.2922    0.6724 S   0  0  0  0  0  0  0  0  0  0  0  0
    0.1098    1.2910   -1.1177 H   0  0  0  0  0  0  0  0  0  0  0  0
    1.2443    2.2305    1.4897 H   0  0  0  0  0  0  0  0  0  0  0  0
    1.6821    2.8547   -0.1045 H   0  0  0  0  0  0  0  0  0  0  0  0
    1.5680   -0.3437    1.9023 H   0  0  0  0  0  0  0  0  0  0  0  0
    3.1929   -2.1771    1.6253 H   0  0  0  0  0  0  0  0  0  0  0  0
    4.9413   -2.0439   -0.1304 H   0  0  0  0  0  0  0  0  0  0  0  0
    5.0537   -0.0646   -1.6207 H   0  0  0  0  0  0  0  0  0  0  0  0
    3.4293    1.7767   -1.3684 H   0  0  0  0  0  0  0  0  0  0  0  0
   -2.5270    2.2519   -1.1225 H   0  0  0  0  0  0  0  0  0  0  0  0
   -4.4541    1.2534   -2.3046 H   0  0  0  0  0  0  0  0  0  0  0  0
   -3.7589   -2.4993   -0.3136 H   0  0  0  0  0  0  0  0  0  0  0  0
   -1.5673   -0.4320    2.4699 H   0  0  0  0  0  0  0  0  0  0  0  0
  1  2  2  0
  2  3  1  0
  3  4  1  0
  4  5  1  0
  5  6  2  0
  6  7  1  0
  7  8  2  0
  8  9  1  0
  9 10  2  0
  2 11  1  0
 11 12  1  0
 12 13  2  0
 13 14  1  0
 14 15  1  0
 14 16  2  0
 16 17  1  0
 17 18  1  0
 18 19  1  0
 18 20  2  0
 10  5  1  0
 17 11  2  0
  3 21  1  0
  4 22  1  0
  4 23  1  0
  6 24  1  0
  7 25  1  0
  8 26  1  0
  9 27  1  0
 10 28  1  0
 12 29  1  0
 13 30  1  0
 16 31  1  0
 19 32  1  0
M  END
>  <Rank>  (4) 
4

>  <Score>  (4) 
0.8610

>  <Pharma_Score>  (4) 
1.0000

>  <QED>  (4) 
0.8290

>  <MW>  (4) 
350.24

>  <LogP>  (4) 
3.61

>  <PSA>  (4) 
49.3

>  <SA_Score>  (4) 
1.99

>  <HBD>  (4) 
2

>  <HBA>  (4) 
2

>  <Lip_Violations>  (4) 
0

>  <SMILES>  (4) 
O=C(NCc1ccccc1)c1ccc(Br)cc1C(O)=S

$$$$
Candidata_005
     RDKit          3D

 19 20  0  0  0  0  0  0  0  0999 V2000
   -3.2178   -0.4812    1.0273 O   0  0  0  0  0  0  0  0  0  0  0  0
   -2.2858   -0.7608    0.3002 C   0  0  0  0  0  0  0  0  0  0  0  0
   -2.2447   -1.8638   -0.4609 O   0  0  0  0  0  0  0  0  0  0  0  0
   -1.1270    0.0902    0.0324 C   0  0  0  0  0  0  0  0  0  0  0  0
   -1.3277    1.4156   -0.3713 C   0  0  0  0  0  0  0  0  0  0  0  0
   -0.2213    2.2321   -0.6559 C   0  0  0  0  0  0  0  0  0  0  0  0
   -0.5067    4.0165   -1.2158 Br  0  0  0  0  0  0  0  0  0  0  0  0
    1.0884    1.7530   -0.5356 C   0  0  0  0  0  0  0  0  0  0  0  0
    1.2662    0.4462   -0.1123 C   0  0  0  0  0  0  0  0  0  0  0  0
    0.1702   -0.3632    0.1713 C   0  0  0  0  0  0  0  0  0  0  0  0
    0.7094   -1.6353    0.6478 C   0  0  0  0  0  0  0  0  0  0  0  0
    0.1011   -2.5942    1.0719 O   0  0  0  0  0  0  0  0  0  0  0  0
    2.1832   -1.5226    0.5658 C   0  0  0  0  0  0  0  0  0  0  0  0
    2.4900   -0.2955    0.1231 C   0  0  0  0  0  0  0  0  0  0  0  0
   -3.0084   -2.4036   -0.1689 H   0  0  0  0  0  0  0  0  0  0  0  0
   -2.3404    1.8021   -0.4700 H   0  0  0  0  0  0  0  0  0  0  0  0
    1.9409    2.3885   -0.7557 H   0  0  0  0  0  0  0  0  0  0  0  0
    2.8483   -2.3227    0.8424 H   0  0  0  0  0  0  0  0  0  0  0  0
    3.4819    0.0985   -0.0358 H   0  0  0  0  0  0  0  0  0  0  0  0
  1  2  2  0
  2  3  1  0
  2  4  1  0
  4  5  1  0
  5  6  2  0
  6  7  1  0
  6  8  1  0
  8  9  2  0
  9 10  1  0
 10 11  1  0
 11 12  2  0
 11 13  1  0
 13 14  2  0
 10  4  2  0
 14  9  1  0
  3 15  1  0
  5 16  1  0
  8 17  1  0
 13 18  1  0
 14 19  1  0
M  END
>  <Rank>  (5) 
5

>  <Score>  (5) 
0.8410

>  <Pharma_Score>  (5) 
1.0000

>  <QED>  (5) 
0.8350

>  <MW>  (5) 
253.05

>  <LogP>  (5) 
2.36

>  <PSA>  (5) 
54.4

>  <SA_Score>  (5) 
2.54

>  <HBD>  (5) 
1

>  <HBA>  (5) 
2

>  <Lip_Violations>  (5) 
0

>  <SMILES>  (5) 
O=C(O)c1cc(Br)cc2c1C(=O)C=C2

$$$$
Candidata_006
     RDKit          3D

 26 27  0  0  0  0  0  0  0  0999 V2000
   -0.2180   -2.5296    0.6920 O   0  0  0  0  0  0  0  0  0  0  0  0
   -1.3379   -2.1151    0.4714 C   0  0  0  0  0  0  0  0  0  0  0  0
   -2.4140   -2.9199    0.5081 O   0  0  0  0  0  0  0  0  0  0  0  0
   -1.7100   -0.7215    0.1578 C   0  0  0  0  0  0  0  0  0  0  0  0
   -2.9194   -0.1966    0.6371 C   0  0  0  0  0  0  0  0  0  0  0  0
   -3.2495    1.1336    0.3751 C   0  0  0  0  0  0  0  0  0  0  0  0
   -4.8779    1.8387    1.0270 Br  0  0  0  0  0  0  0  0  0  0  0  0
   -2.3919    1.9501   -0.3627 C   0  0  0  0  0  0  0  0  0  0  0  0
   -1.1895    1.4321   -0.8461 C   0  0  0  0  0  0  0  0  0  0  0  0
   -0.8440    0.1004   -0.5719 C   0  0  0  0  0  0  0  0  0  0  0  0
    0.3892   -0.4320   -1.1792 C   0  0  0  0  0  0  0  0  0  0  0  0
    0.2399   -1.0999   -2.2024 O   0  0  0  0  0  0  0  0  0  0  0  0
    1.6207   -0.0987   -0.6011 N   0  0  0  0  0  0  0  0  0  0  0  0
    2.8061   -0.5226   -1.2234 C   0  0  0  0  0  0  0  0  0  0  0  0
    3.9035   -0.1743   -0.6301 C   0  0  0  0  0  0  0  0  0  0  0  0
    4.2143    0.4796    0.4422 C   0  0  0  0  0  0  0  0  0  0  0  0
    3.0139    0.9175    1.1354 C   0  0  0  0  0  0  0  0  0  0  0  0
    1.7994    0.6207    0.6087 C   0  0  0  0  0  0  0  0  0  0  0  0
   -2.0390   -3.8109    0.6754 H   0  0  0  0  0  0  0  0  0  0  0  0
   -3.5958   -0.8236    1.2141 H   0  0  0  0  0  0  0  0  0  0  0  0
   -2.6569    2.9831   -0.5774 H   0  0  0  0  0  0  0  0  0  0  0  0
   -0.5327    2.0574   -1.4479 H   0  0  0  0  0  0  0  0  0  0  0  0
    2.7504   -1.1031   -2.1370 H   0  0  0  0  0  0  0  0  0  0  0  0
    5.2168    0.6414    0.8087 H   0  0  0  0  0  0  0  0  0  0  0  0
    3.1165    1.4608    2.0674 H   0  0  0  0  0  0  0  0  0  0  0  0
    0.9057    0.9323    1.1377 H   0  0  0  0  0  0  0  0  0  0  0  0
  1  2  2  0
  2  3  1  0
  2  4  1  0
  4  5  1  0
  5  6  2  0
  6  7  1  0
  6  8  1  0
  8  9  2  0
  9 10  1  0
 10 11  1  0
 11 12  2  0
 11 13  1  0
 13 14  1  0
 14 15  2  0
 15 16  2  0
 16 17  1  0
 17 18  2  0
 10  4  2  0
 18 13  1  0
  3 19  1  0
  5 20  1  0
  8 21  1  0
  9 22  1  0
 14 23  1  0
 16 24  1  0
 17 25  1  0
 18 26  1  0
M  END
>  <Rank>  (6) 
6

>  <Score>  (6) 
0.8110

>  <Pharma_Score>  (6) 
1.0000

>  <QED>  (6) 
0.8550

>  <MW>  (6) 
306.12

>  <LogP>  (6) 
2.79

>  <PSA>  (6) 
57.6

>  <SA_Score>  (6) 
3.45

>  <HBD>  (6) 
1

>  <HBA>  (6) 
2

>  <Lip_Violations>  (6) 
0

>  <SMILES>  (6) 
O=C(O)c1cc(Br)ccc1C(=O)N1C=C=CC=C1

$$$$
Candidata_007
     RDKit          3D

 29 29  0  0  0  0  0  0  0  0999 V2000
    5.9584   -1.1838    0.5681 C   0  0  0  0  0  0  0  0  0  0  0  0
    5.5914   -0.0958    0.2177 C   0  0  0  0  0  0  0  0  0  0  0  0
    5.1727    1.1980   -0.1969 C   0  0  0  0  0  0  0  0  0  0  0  0
    3.8963    1.5552   -0.4048 C   0  0  0  0  0  0  0  0  0  0  0  0
    2.7322    0.7077   -0.2485 C   0  0  0  0  0  0  0  0  0  0  0  0
    1.4864    1.1421   -0.4789 C   0  0  0  0  0  0  0  0  0  0  0  0
    0.3904    0.3297   -0.3280 N   0  0  0  0  0  0  0  0  0  0  0  0
   -0.9061    0.7681   -0.5305 C   0  0  0  0  0  0  0  0  0  0  0  0
   -1.2352    1.9031   -0.8535 O   0  0  0  0  0  0  0  0  0  0  0  0
   -1.9487   -0.2669   -0.3536 C   0  0  0  0  0  0  0  0  0  0  0  0
   -1.8554   -1.4542   -1.0962 C   0  0  0  0  0  0  0  0  0  0  0  0
   -2.8741   -2.4073   -1.0189 C   0  0  0  0  0  0  0  0  0  0  0  0
   -3.9887   -2.1680   -0.2145 C   0  0  0  0  0  0  0  0  0  0  0  0
   -5.3695   -3.4557   -0.1245 Br  0  0  0  0  0  0  0  0  0  0  0  0
   -4.0941   -0.9897    0.5225 C   0  0  0  0  0  0  0  0  0  0  0  0
   -3.0644   -0.0404    0.4620 C   0  0  0  0  0  0  0  0  0  0  0  0
   -3.2065    1.1611    1.3008 C   0  0  0  0  0  0  0  0  0  0  0  0
   -4.2321    1.7898    1.4755 O   0  0  0  0  0  0  0  0  0  0  0  0
   -2.0764    1.4171    1.9801 O   0  0  0  0  0  0  0  0  0  0  0  0
    6.2880   -2.1476    0.8795 H   0  0  0  0  0  0  0  0  0  0  0  0
    5.9541    1.9376   -0.3517 H   0  0  0  0  0  0  0  0  0  0  0  0
    3.7076    2.5805   -0.7218 H   0  0  0  0  0  0  0  0  0  0  0  0
    2.8997   -0.3177    0.0702 H   0  0  0  0  0  0  0  0  0  0  0  0
    1.2814    2.1632   -0.7982 H   0  0  0  0  0  0  0  0  0  0  0  0
    0.5409   -0.6185   -0.0042 H   0  0  0  0  0  0  0  0  0  0  0  0
   -1.0135   -1.6267   -1.7636 H   0  0  0  0  0  0  0  0  0  0  0  0
   -2.7999   -3.3217   -1.6036 H   0  0  0  0  0  0  0  0  0  0  0  0
   -4.9647   -0.8051    1.1489 H   0  0  0  0  0  0  0  0  0  0  0  0
   -2.2703    2.2460    2.4668 H   0  0  0  0  0  0  0  0  0  0  0  0
  1  2  3  0
  2  3  1  0
  3  4  2  3
  4  5  1  0
  5  6  2  3
  6  7  1  0
  7  8  1  0
  8  9  2  0
  8 10  1  0
 10 11  1  0
 11 12  2  0
 12 13  1  0
 13 14  1  0
 13 15  2  0
 15 16  1  0
 16 17  1  0
 17 18  2  0
 17 19  1  0
 16 10  2  0
  1 20  1  0
  3 21  1  0
  4 22  1  0
  5 23  1  0
  6 24  1  0
  7 25  1  0
 11 26  1  0
 12 27  1  0
 15 28  1  0
 19 29  1  0
M  END
>  <Rank>  (7) 
7

>  <Score>  (7) 
0.7600

>  <Pharma_Score>  (7) 
1.0000

>  <QED>  (7) 
0.6620

>  <MW>  (7) 
320.14

>  <LogP>  (7) 
2.58

>  <PSA>  (7) 
66.4

>  <SA_Score>  (7) 
3.03

>  <HBD>  (7) 
2

>  <HBA>  (7) 
2

>  <Lip_Violations>  (7) 
0

>  <SMILES>  (7) 
C#CC=CC=CNC(=O)c1ccc(Br)cc1C(=O)O

$$$$
Candidata_008
     RDKit          3D

 40 41  0  0  0  0  0  0  0  0999 V2000
    5.9412    1.3912   -0.7356 O   0  0  0  0  0  0  0  0  0  0  0  0
    4.8732    1.9569   -0.8378 C   0  0  0  0  0  0  0  0  0  0  0  0
    4.7938    3.2406   -1.2309 O   0  0  0  0  0  0  0  0  0  0  0  0
    3.5179    1.4474   -0.5731 C   0  0  0  0  0  0  0  0  0  0  0  0
    3.1845    0.1932   -0.2240 C   0  0  0  0  0  0  0  0  0  0  0  0
    4.3841   -1.2339   -0.0359 Br  0  0  0  0  0  0  0  0  0  0  0  0
    1.7421   -0.1945    0.0044 C   0  0  0  0  0  0  0  0  0  0  0  0
    1.4091   -0.4222    1.4845 C   0  0  0  0  0  0  0  0  0  0  0  0
   -0.0115   -0.5778    1.6690 O   0  0  0  0  0  0  0  0  0  0  0  0
   -0.4333   -1.8730    1.4920 C   0  0  0  0  0  0  0  0  0  0  0  0
   -0.0611   -2.8459    2.4273 C   0  0  0  0  0  0  0  0  0  0  0  0
   -0.4916   -4.1616    2.2664 C   0  0  0  0  0  0  0  0  0  0  0  0
    0.0278   -5.4768    3.5204 Br  0  0  0  0  0  0  0  0  0  0  0  0
   -1.3023   -4.5145    1.1909 C   0  0  0  0  0  0  0  0  0  0  0  0
   -1.7011   -3.5367    0.2759 C   0  0  0  0  0  0  0  0  0  0  0  0
   -1.2891   -2.2021    0.4268 C   0  0  0  0  0  0  0  0  0  0  0  0
   -1.7751   -1.2138   -0.5885 C   0  0  0  0  0  0  0  0  0  0  0  0
   -2.1082   -1.6350   -1.6908 O   0  0  0  0  0  0  0  0  0  0  0  0
   -1.8169    0.1010   -0.1688 N   0  0  0  0  0  0  0  0  0  0  0  0
   -2.1944    1.2384   -0.9088 C   0  0  0  0  0  0  0  0  0  0  0  0
   -2.1322    2.4750   -0.2522 C   0  0  0  0  0  0  0  0  0  0  0  0
   -2.4804    3.6541   -0.9162 C   0  0  0  0  0  0  0  0  0  0  0  0
   -2.8941    3.6075   -2.2444 C   0  0  0  0  0  0  0  0  0  0  0  0
   -2.9598    2.3830   -2.9048 C   0  0  0  0  0  0  0  0  0  0  0  0
   -2.6114    1.2026   -2.2399 C   0  0  0  0  0  0  0  0  0  0  0  0
    5.7289    3.4901   -1.3888 H   0  0  0  0  0  0  0  0  0  0  0  0
    2.7381    2.1958   -0.6843 H   0  0  0  0  0  0  0  0  0  0  0  0
    1.0739    0.5834   -0.3876 H   0  0  0  0  0  0  0  0  0  0  0  0
    1.4957   -1.0896   -0.5808 H   0  0  0  0  0  0  0  0  0  0  0  0
    1.6931    0.4649    2.0631 H   0  0  0  0  0  0  0  0  0  0  0  0
    1.9742   -1.2618    1.9059 H   0  0  0  0  0  0  0  0  0  0  0  0
    0.5566   -2.5754    3.2796 H   0  0  0  0  0  0  0  0  0  0  0  0
   -1.6372   -5.5405    1.0578 H   0  0  0  0  0  0  0  0  0  0  0  0
   -2.3453   -3.8186   -0.5562 H   0  0  0  0  0  0  0  0  0  0  0  0
   -1.5129    0.2725    0.7847 H   0  0  0  0  0  0  0  0  0  0  0  0
   -1.8153    2.5374    0.7855 H   0  0  0  0  0  0  0  0  0  0  0  0
   -2.4309    4.6068   -0.3956 H   0  0  0  0  0  0  0  0  0  0  0  0
   -3.1677    4.5217   -2.7645 H   0  0  0  0  0  0  0  0  0  0  0  0
   -3.2843    2.3397   -3.9416 H   0  0  0  0  0  0  0  0  0  0  0  0
   -2.6779    0.2705   -2.7919 H   0  0  0  0  0  0  0  0  0  0  0  0
  1  2  2  0
  2  3  1  0
  2  4  1  0
  4  5  2  3
  5  6  1  0
  5  7  1  0
  7  8  1  0
  8  9  1  0
  9 10  1  0
 10 11  1  0
 11 12  2  0
 12 13  1  0
 12 14  1  0
 14 15  2  0
 15 16  1  0
 16 17  1  0
 17 18  2  0
 17 19  1  0
 19 20  1  0
 20 21  2  0
 21 22  1  0
 22 23  2  0
 23 24  1  0
 24 25  2  0
 16 10  2  0
 25 20  1  0
  3 26  1  0
  4 27  1  0
  7 28  1  0
  7 29  1  0
  8 30  1  0
  8 31  1  0
 11 32  1  0
 14 33  1  0
 15 34  1  0
 19 35  1  0
 21 36  1  0
 22 37  1  0
 23 38  1  0
 24 39  1  0
 25 40  1  0
M  END
>  <Rank>  (8) 
8

>  <Score>  (8) 
0.7550

>  <Pharma_Score>  (8) 
1.0000

>  <QED>  (8) 
0.5700

>  <MW>  (8) 
469.13

>  <LogP>  (8) 
4.83

>  <PSA>  (8) 
75.6

>  <SA_Score>  (8) 
2.36

>  <HBD>  (8) 
2

>  <HBA>  (8) 
3

>  <Lip_Violations>  (8) 
0

>  <SMILES>  (8) 
O=C(O)C=C(Br)CCOc1cc(Br)ccc1C(=O)Nc1ccccc1

$$$$
Candidata_009
     RDKit          3D

 29 30  0  0  0  0  0  0  0  0999 V2000
   -2.1736   -3.5889   -0.6884 O   0  0  0  0  0  0  0  0  0  0  0  0
   -2.3220   -2.3406   -0.7409 C   0  0  0  0  0  0  0  0  0  0  0  0
   -3.3464   -1.8738   -1.5558 O   0  0  0  0  0  0  0  0  0  0  0  0
   -1.4546   -1.4165    0.0222 C   0  0  0  0  0  0  0  0  0  0  0  0
   -1.6669   -0.0962   -0.0788 C   0  0  0  0  0  0  0  0  0  0  0  0
   -2.9505    0.3846   -1.1013 B   0  0  0  0  0  0  0  0  0  0  0  0
   -3.0059    2.4910   -0.7245 C   0  0  0  0  0  0  0  0  0  0  0  0
   -4.3566    3.2369   -1.6456 Br  0  0  0  0  0  0  0  0  0  0  0  0
   -2.0849    2.7684    0.0618 C   0  0  0  0  0  0  0  0  0  0  0  0
   -1.0606    2.0434    0.7430 C   0  0  0  0  0  0  0  0  0  0  0  0
   -0.8185    0.7566    0.7133 C   0  0  0  0  0  0  0  0  0  0  0  0
    0.3429    0.2788    1.5279 C   0  0  0  0  0  0  0  0  0  0  0  0
    1.5077   -0.1595    0.7690 C   0  0  0  0  0  0  0  0  0  0  0  0
    2.2134    0.8349    0.0676 C   0  0  0  0  0  0  0  0  0  0  0  0
    3.3446    0.5436   -0.6557 C   0  0  0  0  0  0  0  0  0  0  0  0
    3.8339   -0.7373   -0.7231 C   0  0  0  0  0  0  0  0  0  0  0  0
    3.1666   -1.7278   -0.0489 C   0  0  0  0  0  0  0  0  0  0  0  0
    2.0297   -1.4213    0.6754 C   0  0  0  0  0  0  0  0  0  0  0  0
   -4.2126   -2.4180   -1.5570 H   0  0  0  0  0  0  0  0  0  0  0  0
   -0.7117   -1.8700    0.6310 H   0  0  0  0  0  0  0  0  0  0  0  0
   -2.0556    3.8961    0.2973 H   0  0  0  0  0  0  0  0  0  0  0  0
   -0.3767    2.6414    1.3796 H   0  0  0  0  0  0  0  0  0  0  0  0
    0.0195   -0.6062    2.1591 H   0  0  0  0  0  0  0  0  0  0  0  0
    0.6087    1.0325    2.2978 H   0  0  0  0  0  0  0  0  0  0  0  0
    1.8628    1.8687    0.0912 H   0  0  0  0  0  0  0  0  0  0  0  0
    3.8680    1.3427   -1.1890 H   0  0  0  0  0  0  0  0  0  0  0  0
    4.7288   -0.8971   -1.3105 H   0  0  0  0  0  0  0  0  0  0  0  0
    3.5368   -2.7458   -0.0895 H   0  0  0  0  0  0  0  0  0  0  0  0
    1.5338   -2.2206    1.2008 H   0  0  0  0  0  0  0  0  0  0  0  0
  1  2  2  0
  2  3  1  0
  2  4  1  0
  4  5  2  3
  5  6  1  0
  6  7  1  0
  7  8  1  0
  7  9  2  0
  9 10  1  0
 10 11  2  0
 11 12  1  0
 12 13  1  0
 13 14  2  0
 14 15  1  0
 15 16  2  0
 16 17  1  0
 17 18  2  0
 11  5  1  0
 18 13  1  0
  3 19  1  0
  4 20  1  0
  9 21  1  0
 10 22  1  0
 12 23  1  0
 12 24  1  0
 14 25  1  0
 15 26  1  0
 16 27  1  0
 17 28  1  0
 18 29  1  0
M  CHG  1   6   1
M  END
>  <Rank>  (9) 
9

>  <Score>  (9) 
0.7500

>  <Pharma_Score>  (9) 
1.0000

>  <QED>  (9) 
0.6880

>  <MW>  (9) 
301.96

>  <LogP>  (9) 
3.08

>  <PSA>  (9) 
37.3

>  <SA_Score>  (9) 
3.52

>  <HBD>  (9) 
1

>  <HBA>  (9) 
1

>  <Lip_Violations>  (9) 
0

>  <SMILES>  (9) 
O=C(O)C=C1[B+]C(Br)=CC=C1Cc1ccccc1

$$$$
Candidata_010
     RDKit          3D

 15 14  0  0  0  0  0  0  0  0999 V2000
   -2.3431   -0.4643   -0.3985 C   0  0  0  0  0  0  0  0  0  0  0  0
   -1.3717    0.6545   -0.0562 C   0  0  0  0  0  0  0  0  0  0  0  0
   -0.0619    0.1119    0.4338 C   0  0  0  0  0  0  0  0  0  0  0  0
    1.1103    0.3213   -0.1848 C   0  0  0  0  0  0  0  0  0  0  0  0
    2.3529   -0.2407    0.3627 C   0  0  0  0  0  0  0  0  0  0  0  0
    2.4845   -0.9149    1.3654 O   0  0  0  0  0  0  0  0  0  0  0  0
    3.3923    0.0948   -0.4177 O   0  0  0  0  0  0  0  0  0  0  0  0
   -2.5460   -1.0948    0.4739 H   0  0  0  0  0  0  0  0  0  0  0  0
   -3.2951   -0.0465   -0.7415 H   0  0  0  0  0  0  0  0  0  0  0  0
   -1.9465   -1.1023   -1.1956 H   0  0  0  0  0  0  0  0  0  0  0  0
   -1.8056    1.2871    0.7265 H   0  0  0  0  0  0  0  0  0  0  0  0
   -1.2283    1.2900   -0.9380 H   0  0  0  0  0  0  0  0  0  0  0  0
   -0.0897   -0.4747    1.3519 H   0  0  0  0  0  0  0  0  0  0  0  0
    1.1893    0.9007   -1.0964 H   0  0  0  0  0  0  0  0  0  0  0  0
    4.1588   -0.3221    0.0278 H   0  0  0  0  0  0  0  0  0  0  0  0
  1  2  1  0
  2  3  1  0
  3  4  2  3
  4  5  1  0
  5  6  2  0
  5  7  1  0
  1  8  1  0
  1  9  1  0
  1 10  1  0
  2 11  1  0
  2 12  1  0
  3 13  1  0
  4 14  1  0
  7 15  1  0
M  END
>  <Rank>  (10) 
10

>  <Score>  (10) 
0.7390

>  <Pharma_Score>  (10) 
1.0000

>  <QED>  (10) 
0.5260

>  <MW>  (10) 
100.12

>  <LogP>  (10) 
1.04

>  <PSA>  (10) 
37.3

>  <SA_Score>  (10) 
2.39

>  <HBD>  (10) 
1

>  <HBA>  (10) 
1

>  <Lip_Violations>  (10) 
0

>  <SMILES>  (10) 
CCC=CC(=O)O

$$$$
Candidata_011
     RDKit          3D

 19 19  0  0  0  0  0  0  0  0999 V2000
   -2.4221   -1.1159   -0.7250 O   0  0  0  0  0  0  0  0  0  0  0  0
   -1.6898   -1.0484    0.4908 C   0  0  0  0  0  0  0  0  0  0  0  0
   -0.2936   -0.5439    0.2216 C   0  0  0  0  0  0  0  0  0  0  0  0
    0.7680   -1.4678    0.2234 C   0  0  0  0  0  0  0  0  0  0  0  0
    2.0722   -1.0511   -0.0375 C   0  0  0  0  0  0  0  0  0  0  0  0
    3.4807   -2.3118   -0.0238 Br  0  0  0  0  0  0  0  0  0  0  0  0
    2.3438    0.2843   -0.3080 C   0  0  0  0  0  0  0  0  0  0  0  0
    1.3002    1.2102   -0.3216 C   0  0  0  0  0  0  0  0  0  0  0  0
   -0.0271    0.8141   -0.0671 C   0  0  0  0  0  0  0  0  0  0  0  0
   -1.1056    1.8650   -0.0872 C   0  0  0  0  0  0  0  0  0  0  0  0
   -1.2490    2.6708    1.6780 Br  0  0  0  0  0  0  0  0  0  0  0  0
   -1.7945   -1.3506   -1.4302 H   0  0  0  0  0  0  0  0  0  0  0  0
   -2.2202   -0.4027    1.1968 H   0  0  0  0  0  0  0  0  0  0  0  0
   -1.6699   -2.0511    0.9313 H   0  0  0  0  0  0  0  0  0  0  0  0
    0.5735   -2.5180    0.4334 H   0  0  0  0  0  0  0  0  0  0  0  0
    3.3593    0.6166   -0.5067 H   0  0  0  0  0  0  0  0  0  0  0  0
    1.5298    2.2546   -0.5286 H   0  0  0  0  0  0  0  0  0  0  0  0
   -0.8661    2.6724   -0.7863 H   0  0  0  0  0  0  0  0  0  0  0  0
   -2.0895    1.4735   -0.3531 H   0  0  0  0  0  0  0  0  0  0  0  0
  1  2  1  0
  2  3  1  0
  3  4  1  0
  4  5  2  0
  5  6  1  0
  5  7  1  0
  7  8  2  0
  8  9  1  0
  9 10  1  0
 10 11  1  0
  9  3  2  0
  1 12  1  0
  2 13  1  0
  2 14  1  0
  4 15  1  0
  7 16  1  0
  8 17  1  0
 10 18  1  0
 10 19  1  0
M  END
>  <Rank>  (11) 
11

>  <Score>  (11) 
0.7360

>  <Pharma_Score>  (11) 
0.7500

>  <QED>  (11) 
0.8260

>  <MW>  (11) 
279.96

>  <LogP>  (11) 
2.84

>  <PSA>  (11) 
20.2

>  <SA_Score>  (11) 
2.27

>  <HBD>  (11) 
1

>  <HBA>  (11) 
1

>  <Lip_Violations>  (11) 
0

>  <SMILES>  (11) 
OCc1cc(Br)ccc1CBr

$$$$
Candidata_012
     RDKit          3D

 22 22  0  0  0  0  0  0  0  0999 V2000
   -0.0586    2.0994    1.6114 O   0  0  0  0  0  0  0  0  0  0  0  0
   -1.0524    1.6911    1.0432 C   0  0  0  0  0  0  0  0  0  0  0  0
   -2.1669    2.4307    0.9158 O   0  0  0  0  0  0  0  0  0  0  0  0
   -1.2224    0.3546    0.4461 C   0  0  0  0  0  0  0  0  0  0  0  0
   -2.4092   -0.3570    0.6717 C   0  0  0  0  0  0  0  0  0  0  0  0
   -2.5327   -1.6598    0.1895 C   0  0  0  0  0  0  0  0  0  0  0  0
   -4.1297   -2.6235    0.4972 Br  0  0  0  0  0  0  0  0  0  0  0  0
   -1.4874   -2.2636   -0.5113 C   0  0  0  0  0  0  0  0  0  0  0  0
   -0.3065   -1.5550   -0.7427 C   0  0  0  0  0  0  0  0  0  0  0  0
   -0.1758   -0.2441   -0.2633 C   0  0  0  0  0  0  0  0  0  0  0  0
    1.0421    0.5157   -0.6029 C   0  0  0  0  0  0  0  0  0  0  0  0
    0.9544    1.5527   -1.2454 O   0  0  0  0  0  0  0  0  0  0  0  0
    2.2191   -0.0407   -0.1630 N   0  0  0  0  0  0  0  0  0  0  0  0
    3.4462    0.7045   -0.2768 C   0  0  0  0  0  0  0  0  0  0  0  0
    4.9965   -0.5827    0.3156 I   0  0  0  0  0  0  0  0  0  0  0  0
   -1.9201    3.3016    1.2933 H   0  0  0  0  0  0  0  0  0  0  0  0
   -3.2217    0.1020    1.2304 H   0  0  0  0  0  0  0  0  0  0  0  0
   -1.5886   -3.2776   -0.8919 H   0  0  0  0  0  0  0  0  0  0  0  0
    0.4940   -2.0143   -1.3192 H   0  0  0  0  0  0  0  0  0  0  0  0
    2.1874   -0.7694    0.5371 H   0  0  0  0  0  0  0  0  0  0  0  0
    3.5606    1.0499   -1.3094 H   0  0  0  0  0  0  0  0  0  0  0  0
    3.3716    1.5852    0.3693 H   0  0  0  0  0  0  0  0  0  0  0  0
  1  2  2  0
  2  3  1  0
  2  4  1  0
  4  5  1  0
  5  6  2  0
  6  7  1  0
  6  8  1  0
  8  9  2  0
  9 10  1  0
 10 11  1  0
 11 12  2  0
 11 13  1  0
 13 14  1  0
 14 15  1  0
 10  4  2  0
  3 16  1  0
  5 17  1  0
  8 18  1  0
  9 19  1  0
 13 20  1  0
 14 21  1  0
 14 22  1  0
M  END
>  <Rank>  (12) 
12

>  <Score>  (12) 
0.7250

>  <Pharma_Score>  (12) 
1.0000

>  <QED>  (12) 
0.4780

>  <MW>  (12) 
383.97

>  <LogP>  (12) 
2.27

>  <PSA>  (12) 
66.4

>  <SA_Score>  (12) 
2.31

>  <HBD>  (12) 
2

>  <HBA>  (12) 
2

>  <Lip_Violations>  (12) 
0

>  <SMILES>  (12) 
O=C(O)c1cc(Br)ccc1C(=O)NCI

$$$$
Candidata_014
     RDKit          3D

 20 20  0  0  0  0  0  0  0  0999 V2000
    3.4090   -1.9528    0.1761 O   0  0  0  0  0  0  0  0  0  0  0  0
    3.0884   -0.7854    0.0723 C   0  0  0  0  0  0  0  0  0  0  0  0
    3.9718    0.2159    0.2100 O   0  0  0  0  0  0  0  0  0  0  0  0
    1.7532   -0.2416   -0.2147 C   0  0  0  0  0  0  0  0  0  0  0  0
    0.6993   -1.0644   -0.3496 C   0  0  0  0  0  0  0  0  0  0  0  0
   -0.7353   -0.6814   -0.6378 C   0  0  0  0  0  0  0  0  0  0  0  0
   -0.9030    0.7275   -1.1521 C   0  0  0  0  0  0  0  0  0  0  0  0
   -1.6491    1.6530   -0.5349 C   0  0  0  0  0  0  0  0  0  0  0  0
   -2.3545    1.3552    0.6836 C   0  0  0  0  0  0  0  0  0  0  0  0
   -2.3469    0.1415    1.2459 C   0  0  0  0  0  0  0  0  0  0  0  0
   -1.5749   -0.9663    0.6260 C   0  0  0  0  0  0  0  0  0  0  0  0
   -1.6296   -2.0800    1.1510 O   0  0  0  0  0  0  0  0  0  0  0  0
    4.8145   -0.2466    0.4004 H   0  0  0  0  0  0  0  0  0  0  0  0
    1.6763    0.8351   -0.3001 H   0  0  0  0  0  0  0  0  0  0  0  0
    0.8567   -2.1380   -0.2232 H   0  0  0  0  0  0  0  0  0  0  0  0
   -1.1200   -1.3489   -1.4203 H   0  0  0  0  0  0  0  0  0  0  0  0
   -0.4023    0.9809   -2.0836 H   0  0  0  0  0  0  0  0  0  0  0  0
   -1.7475    2.6539   -0.9476 H   0  0  0  0  0  0  0  0  0  0  0  0
   -2.9204    2.1620    1.1423 H   0  0  0  0  0  0  0  0  0  0  0  0
   -2.8859   -0.0876    2.1564 H   0  0  0  0  0  0  0  0  0  0  0  0
  1  2  2  0
  2  3  1  0
  2  4  1  0
  4  5  2  3
  5  6  1  0
  6  7  1  0
  7  8  2  0
  8  9  1  0
  9 10  2  0
 10 11  1  0
 11 12  2  0
 11  6  1  0
  3 13  1  0
  4 14  1  0
  5 15  1  0
  6 16  1  0
  7 17  1  0
  8 18  1  0
  9 19  1  0
 10 20  1  0
M  END
>  <Rank>  (13) 
14

>  <Score>  (13) 
0.7130

>  <Pharma_Score>  (13) 
1.0000

>  <QED>  (13) 
0.6180

>  <MW>  (13) 
164.16

>  <LogP>  (13) 
0.94

>  <PSA>  (13) 
54.4

>  <SA_Score>  (13) 
3.83

>  <HBD>  (13) 
1

>  <HBA>  (13) 
2

>  <Lip_Violations>  (13) 
0

>  <SMILES>  (13) 
O=C(O)C=CC1C=CC=CC1=O

$$$$
Candidata_015
     RDKit          3D

 30 31  0  0  0  0  0  0  0  0999 V2000
    2.6996    2.2816    2.9723 O   0  0  0  0  0  0  0  0  0  0  0  0
    2.4111    1.2274    2.4107 C   0  0  0  0  0  0  0  0  0  0  0  0
    2.0624    0.0255    1.7572 B   0  0  0  0  0  0  0  0  0  0  0  0
    2.1340   -1.1945    2.6191 O   0  0  0  0  0  0  0  0  0  0  0  0
    2.4216   -0.0404    0.2398 C   0  0  0  0  0  0  0  0  0  0  0  0
    3.7536    0.0854   -0.1597 C   0  0  0  0  0  0  0  0  0  0  0  0
    4.1050    0.0339   -1.5069 C   0  0  0  0  0  0  0  0  0  0  0  0
    5.8887    0.1845   -2.1203 Br  0  0  0  0  0  0  0  0  0  0  0  0
    3.1038   -0.1442   -2.4397 C   0  0  0  0  0  0  0  0  0  0  0  0
    1.8132   -0.2630   -2.0201 C   0  0  0  0  0  0  0  0  0  0  0  0
    1.4367   -0.2150   -0.6693 C   0  0  0  0  0  0  0  0  0  0  0  0
    0.0171   -0.3644   -0.4116 C   0  0  0  0  0  0  0  0  0  0  0  0
   -0.4464   -1.5465   -0.5637 O   0  0  0  0  0  0  0  0  0  0  0  0
   -0.8452    0.6901   -0.0187 N   0  0  0  0  0  0  0  0  0  0  0  0
   -2.2206    0.4118    0.1950 C   0  0  0  0  0  0  0  0  0  0  0  0
   -2.9601    0.8039    1.2685 C   0  0  0  0  0  0  0  0  0  0  0  0
   -4.3121    0.4464    1.3631 C   0  0  0  0  0  0  0  0  0  0  0  0
   -4.9273   -0.2985    0.3953 C   0  0  0  0  0  0  0  0  0  0  0  0
   -4.1816   -0.6998   -0.6979 C   0  0  0  0  0  0  0  0  0  0  0  0
   -2.8586   -0.3431   -0.7789 C   0  0  0  0  0  0  0  0  0  0  0  0
    2.7629   -1.9246    2.3034 H   0  0  0  0  0  0  0  0  0  0  0  0
    4.5597    0.2191    0.5321 H   0  0  0  0  0  0  0  0  0  0  0  0
    3.3124   -0.1839   -3.5059 H   0  0  0  0  0  0  0  0  0  0  0  0
    1.0395   -0.4118   -2.7908 H   0  0  0  0  0  0  0  0  0  0  0  0
   -0.4298    1.6589    0.1037 H   0  0  0  0  0  0  0  0  0  0  0  0
   -2.4829    1.3870    2.0305 H   0  0  0  0  0  0  0  0  0  0  0  0
   -4.9019    0.7566    2.2161 H   0  0  0  0  0  0  0  0  0  0  0  0
   -5.9899   -0.5897    0.4389 H   0  0  0  0  0  0  0  0  0  0  0  0
   -4.6401   -1.2994   -1.4896 H   0  0  0  0  0  0  0  0  0  0  0  0
   -2.3248   -0.6934   -1.6724 H   0  0  0  0  0  0  0  0  0  0  0  0
  1  2  2  0
  2  3  2  0
  3  4  1  0
  3  5  1  0
  5  6  1  0
  6  7  2  0
  7  8  1  0
  7  9  1  0
  9 10  2  0
 10 11  1  0
 11 12  1  0
 12 13  2  0
 12 14  1  0
 14 15  1  0
 15 16  2  0
 16 17  1  0
 17 18  2  0
 18 19  1  0
 19 20  2  0
 11  5  2  0
 20 15  1  0
  4 21  1  0
  6 22  1  0
  9 23  1  0
 10 24  1  0
 14 25  1  0
 16 26  1  0
 17 27  1  0
 18 28  1  0
 19 29  1  0
 20 30  1  0
M  CHG  1   3  -1
M  END
>  <Rank>  (14) 
15

>  <Score>  (14) 
0.7130

>  <Pharma_Score>  (14) 
0.7500

>  <QED>  (14) 
0.8390

>  <MW>  (14) 
330.95

>  <LogP>  (14) 
1.54

>  <PSA>  (14) 
66.4

>  <SA_Score>  (14) 
2.96

>  <HBD>  (14) 
2

>  <HBA>  (14) 
3

>  <Lip_Violations>  (14) 
0

>  <SMILES>  (14) 
O=C=[B-](O)c1cc(Br)ccc1C(=O)Nc1ccccc1

$$$$
Candidata_016
     RDKit          3D

 16 15  0  0  0  0  0  0  0  0999 V2000
   -3.1164   -0.7367    0.7355 C   0  0  0  0  0  0  0  0  0  0  0  0
   -1.6601   -0.7921    0.3913 C   0  0  0  0  0  0  0  0  0  0  0  0
   -0.8291    0.2267    0.0957 C   0  0  0  0  0  0  0  0  0  0  0  0
   -1.4133    2.0133    0.0674 Br  0  0  0  0  0  0  0  0  0  0  0  0
    0.5690   -0.0605   -0.2128 C   0  0  0  0  0  0  0  0  0  0  0  0
    1.5355    0.8171   -0.5275 C   0  0  0  0  0  0  0  0  0  0  0  0
    2.8921    0.3290   -0.8071 C   0  0  0  0  0  0  0  0  0  0  0  0
    3.2821   -0.8223   -0.7921 O   0  0  0  0  0  0  0  0  0  0  0  0
    3.7029    1.3577   -1.0987 O   0  0  0  0  0  0  0  0  0  0  0  0
   -3.6855   -1.3309    0.0135 H   0  0  0  0  0  0  0  0  0  0  0  0
   -3.2738   -1.1691    1.7288 H   0  0  0  0  0  0  0  0  0  0  0  0
   -3.5362    0.2710    0.7413 H   0  0  0  0  0  0  0  0  0  0  0  0
   -1.2636   -1.8071    0.3918 H   0  0  0  0  0  0  0  0  0  0  0  0
    0.8410   -1.1171   -0.1784 H   0  0  0  0  0  0  0  0  0  0  0  0
    1.3850    1.8863   -0.5923 H   0  0  0  0  0  0  0  0  0  0  0  0
    4.5705    0.9347   -1.2671 H   0  0  0  0  0  0  0  0  0  0  0  0
  1  2  1  0
  2  3  2  3
  3  4  1  0
  3  5  1  0
  5  6  2  3
  6  7  1  0
  7  8  2  0
  7  9  1  0
  1 10  1  0
  1 11  1  0
  1 12  1  0
  2 13  1  0
  5 14  1  0
  6 15  1  0
  9 16  1  0
M  END
>  <Rank>  (15) 
16

>  <Score>  (15) 
0.7070

>  <Pharma_Score>  (15) 
1.0000

>  <QED>  (15) 
0.5340

>  <MW>  (15) 
191.02

>  <LogP>  (15) 
1.93

>  <PSA>  (15) 
37.3

>  <SA_Score>  (15) 
3.24

>  <HBD>  (15) 
1

>  <HBA>  (15) 
1

>  <Lip_Violations>  (15) 
0

>  <SMILES>  (15) 
CC=C(Br)C=CC(=O)O

$$$$
Candidata_017
     RDKit          3D

 12 11  0  0  0  0  0  0  0  0999 V2000
    2.4980   -1.2270    0.5718 O   0  0  0  0  0  0  0  0  0  0  0  0
    1.5518   -0.5587    0.1965 C   0  0  0  0  0  0  0  0  0  0  0  0
    1.6464    0.7683    0.0457 O   0  0  0  0  0  0  0  0  0  0  0  0
    0.2492   -1.1173   -0.1945 C   0  0  0  0  0  0  0  0  0  0  0  0
   -0.9302   -0.4870   -0.3277 C   0  0  0  0  0  0  0  0  0  0  0  0
   -1.2430    0.9480   -0.0577 C   0  0  0  0  0  0  0  0  0  0  0  0
   -2.9543    1.0265    0.8817 Br  0  0  0  0  0  0  0  0  0  0  0  0
    2.5680    0.9654    0.3150 H   0  0  0  0  0  0  0  0  0  0  0  0
    0.2963   -2.1865   -0.3854 H   0  0  0  0  0  0  0  0  0  0  0  0
   -1.7679   -1.0963   -0.6663 H   0  0  0  0  0  0  0  0  0  0  0  0
   -1.3727    1.5112   -0.9846 H   0  0  0  0  0  0  0  0  0  0  0  0
   -0.5414    1.4535    0.6056 H   0  0  0  0  0  0  0  0  0  0  0  0
  1  2  2  0
  2  3  1  0
  2  4  1  0
  4  5  2  3
  5  6  1  0
  6  7  1  0
  3  8  1  0
  4  9  1  0
  5 10  1  0
  6 11  1  0
  6 12  1  0
M  END
>  <Rank>  (16) 
17

>  <Score>  (16) 
0.7040

>  <Pharma_Score>  (16) 
1.0000

>  <QED>  (16) 
0.4890

>  <MW>  (16) 
164.99

>  <LogP>  (16) 
1.02

>  <PSA>  (16) 
37.3

>  <SA_Score>  (16) 
2.93

>  <HBD>  (16) 
1

>  <HBA>  (16) 
1

>  <Lip_Violations>  (16) 
0

>  <SMILES>  (16) 
O=C(O)C=CCBr

$$$$
Candidata_018
     RDKit          3D

 32 32  0  0  0  0  0  0  0  0999 V2000
    8.1188   -1.3213    2.8403 O   0  0  0  0  0  0  0  0  0  0  0  0
    7.2375   -0.6315    2.3591 C   0  0  0  0  0  0  0  0  0  0  0  0
    7.3920    0.6917    2.1905 O   0  0  0  0  0  0  0  0  0  0  0  0
    5.9375   -1.1389    1.9167 C   0  0  0  0  0  0  0  0  0  0  0  0
    5.0079   -0.3853    1.4074 C   0  0  0  0  0  0  0  0  0  0  0  0
    4.0871    0.3819    0.8981 C   0  0  0  0  0  0  0  0  0  0  0  0
    2.7464   -0.0499    0.5227 C   0  0  0  0  0  0  0  0  0  0  0  0
    2.2984   -1.8634    0.7819 Br  0  0  0  0  0  0  0  0  0  0  0  0
    1.8800    0.8512    0.0142 C   0  0  0  0  0  0  0  0  0  0  0  0
    0.5147    0.6144   -0.4200 C   0  0  0  0  0  0  0  0  0  0  0  0
   -0.2735    1.5957   -0.8868 C   0  0  0  0  0  0  0  0  0  0  0  0
   -1.6616    1.3785   -1.3802 C   0  0  0  0  0  0  0  0  0  0  0  0
   -2.0411    2.0358   -2.3411 O   0  0  0  0  0  0  0  0  0  0  0  0
   -2.3896    0.4845   -0.6279 N   0  0  0  0  0  0  0  0  0  0  0  0
   -3.7169    0.0610   -0.8493 C   0  0  0  0  0  0  0  0  0  0  0  0
   -4.4917    0.4586   -1.9403 C   0  0  0  0  0  0  0  0  0  0  0  0
   -5.8005   -0.0121   -2.0893 C   0  0  0  0  0  0  0  0  0  0  0  0
   -6.3445   -0.8852   -1.1505 C   0  0  0  0  0  0  0  0  0  0  0  0
   -5.5797   -1.2904   -0.0605 C   0  0  0  0  0  0  0  0  0  0  0  0
   -4.2722   -0.8202    0.0885 C   0  0  0  0  0  0  0  0  0  0  0  0
    8.2948    0.8673    2.5274 H   0  0  0  0  0  0  0  0  0  0  0  0
    5.7816   -2.2035    2.0370 H   0  0  0  0  0  0  0  0  0  0  0  0
    4.3423    1.4269    0.7426 H   0  0  0  0  0  0  0  0  0  0  0  0
    2.2175    1.8823   -0.0981 H   0  0  0  0  0  0  0  0  0  0  0  0
    0.1419   -0.4057   -0.3865 H   0  0  0  0  0  0  0  0  0  0  0  0
    0.0800    2.6143   -1.0113 H   0  0  0  0  0  0  0  0  0  0  0  0
   -1.9489    0.1180    0.2047 H   0  0  0  0  0  0  0  0  0  0  0  0
   -4.1070    1.1338   -2.6982 H   0  0  0  0  0  0  0  0  0  0  0  0
   -6.3922    0.3069   -2.9438 H   0  0  0  0  0  0  0  0  0  0  0  0
   -7.3618   -1.2484   -1.2703 H   0  0  0  0  0  0  0  0  0  0  0  0
   -5.9996   -1.9725    0.6741 H   0  0  0  0  0  0  0  0  0  0  0  0
   -3.6977   -1.1533    0.9487 H   0  0  0  0  0  0  0  0  0  0  0  0
  1  2  2  0
  2  3  1  0
  2  4  1  0
  4  5  2  0
  5  6  2  0
  6  7  1  0
  7  8  1  0
  7  9  2  3
  9 10  1  0
 10 11  2  3
 11 12  1  0
 12 13  2  0
 12 14  1  0
 14 15  1  0
 15 16  2  0
 16 17  1  0
 17 18  2  0
 18 19  1  0
 19 20  2  0
 20 15  1  0
  3 21  1  0
  4 22  1  0
  6 23  1  0
  9 24  1  0
 10 25  1  0
 11 26  1  0
 14 27  1  0
 16 28  1  0
 17 29  1  0
 18 30  1  0
 19 31  1  0
 20 32  1  0
M  END
>  <Rank>  (17) 
18

>  <Score>  (17) 
0.6980

>  <Pharma_Score>  (17) 
1.0000

>  <QED>  (17) 
0.4930

>  <MW>  (17) 
334.17

>  <LogP>  (17) 
3.26

>  <PSA>  (17) 
66.4

>  <SA_Score>  (17) 
3.12

>  <HBD>  (17) 
2

>  <HBA>  (17) 
2

>  <Lip_Violations>  (17) 
0

>  <SMILES>  (17) 
O=C(O)C=C=CC(Br)=CC=CC(=O)Nc1ccccc1

$$$$
Candidata_019
     RDKit          3D

 28 29  0  0  0  0  0  0  0  0999 V2000
    0.0950   -2.1255   -0.2845 O   0  0  0  0  0  0  0  0  0  0  0  0
   -0.2377   -0.9474   -0.2147 C   0  0  0  0  0  0  0  0  0  0  0  0
    0.6090    0.1439   -0.1762 N   0  0  0  0  0  0  0  0  0  0  0  0
    2.0194    0.1435   -0.1731 C   0  0  0  0  0  0  0  0  0  0  0  0
    2.8024   -1.0112   -0.2067 C   0  0  0  0  0  0  0  0  0  0  0  0
    4.1985   -0.9218   -0.1985 C   0  0  0  0  0  0  0  0  0  0  0  0
    4.8229    0.3224   -0.1564 C   0  0  0  0  0  0  0  0  0  0  0  0
    4.0517    1.4805   -0.1221 C   0  0  0  0  0  0  0  0  0  0  0  0
    2.6572    1.3909   -0.1303 C   0  0  0  0  0  0  0  0  0  0  0  0
   -1.7005   -0.6372   -0.2064 C   0  0  0  0  0  0  0  0  0  0  0  0
   -2.5488   -1.5338   -0.8786 C   0  0  0  0  0  0  0  0  0  0  0  0
   -3.9273   -1.3137   -0.9217 C   0  0  0  0  0  0  0  0  0  0  0  0
   -4.4651   -0.1954   -0.2907 C   0  0  0  0  0  0  0  0  0  0  0  0
   -6.3285    0.1141   -0.3618 Br  0  0  0  0  0  0  0  0  0  0  0  0
   -3.6412    0.6973    0.3934 C   0  0  0  0  0  0  0  0  0  0  0  0
   -2.2601    0.4680    0.4547 C   0  0  0  0  0  0  0  0  0  0  0  0
   -1.4275    1.3339    1.1277 O   0  0  0  0  0  0  0  0  0  0  0  0
   -2.1319    1.8156    2.3055 O   0  0  0  0  0  0  0  0  0  0  0  0
    0.1738    1.0582   -0.1453 H   0  0  0  0  0  0  0  0  0  0  0  0
    2.3588   -2.0011   -0.2398 H   0  0  0  0  0  0  0  0  0  0  0  0
    4.7952   -1.8302   -0.2258 H   0  0  0  0  0  0  0  0  0  0  0  0
    5.9077    0.3872   -0.1507 H   0  0  0  0  0  0  0  0  0  0  0  0
    4.5341    2.4538   -0.0895 H   0  0  0  0  0  0  0  0  0  0  0  0
    2.0791    2.3108   -0.1030 H   0  0  0  0  0  0  0  0  0  0  0  0
   -2.1331   -2.4086   -1.3774 H   0  0  0  0  0  0  0  0  0  0  0  0
   -4.5660   -2.0167   -1.4511 H   0  0  0  0  0  0  0  0  0  0  0  0
   -4.0716    1.5719    0.8749 H   0  0  0  0  0  0  0  0  0  0  0  0
   -1.6655    1.2506    2.9483 H   0  0  0  0  0  0  0  0  0  0  0  0
  1  2  2  0
  2  3  1  0
  3  4  1  0
  4  5  2  0
  5  6  1  0
  6  7  2  0
  7  8  1  0
  8  9  2  0
  2 10  1  0
 10 11  1  0
 11 12  2  0
 12 13  1  0
 13 14  1  0
 13 15  2  0
 15 16  1  0
 16 17  1  0
 17 18  1  0
  9  4  1  0
 16 10  2  0
  3 19  1  0
  5 20  1  0
  6 21  1  0
  7 22  1  0
  8 23  1  0
  9 24  1  0
 11 25  1  0
 12 26  1  0
 15 27  1  0
 18 28  1  0
M  END
>  <Rank>  (18) 
19

>  <Score>  (18) 
0.6970

>  <Pharma_Score>  (18) 
0.7500

>  <QED>  (18) 
0.6730

>  <MW>  (18) 
308.13

>  <LogP>  (18) 
3.55

>  <PSA>  (18) 
58.6

>  <SA_Score>  (18) 
1.89

>  <HBD>  (18) 
2

>  <HBA>  (18) 
3

>  <Lip_Violations>  (18) 
0

>  <SMILES>  (18) 
O=C(Nc1ccccc1)c1ccc(Br)cc1OO

$$$$
Candidata_020
     RDKit          3D

 28 27  0  0  0  0  0  0  0  0999 V2000
   -0.1160   -2.7431    0.6438 C   0  0  0  0  0  0  0  0  0  0  0  0
    0.1716   -1.3147    0.1840 C   0  0  0  0  0  0  0  0  0  0  0  0
    1.3437   -0.7252    0.9932 C   0  0  0  0  0  0  0  0  0  0  0  0
    1.9270    0.5228    0.3564 C   0  0  0  0  0  0  0  0  0  0  0  0
    1.0830    2.1156    0.8720 Br  0  0  0  0  0  0  0  0  0  0  0  0
    3.0173    0.4518   -0.4272 C   0  0  0  0  0  0  0  0  0  0  0  0
    3.7270    1.5491   -1.0930 C   0  0  0  0  0  0  0  0  0  0  0  0
    4.9344    1.5823   -1.2508 O   0  0  0  0  0  0  0  0  0  0  0  0
    2.9199    2.4761   -1.6221 O   0  0  0  0  0  0  0  0  0  0  0  0
   -0.9982   -0.5231    0.4228 O   0  0  0  0  0  0  0  0  0  0  0  0
   -1.8879   -0.4860   -0.6903 C   0  0  0  0  0  0  0  0  0  0  0  0
   -3.1515    0.2711   -0.3003 C   0  0  0  0  0  0  0  0  0  0  0  0
   -2.8445    1.6915    0.1423 C   0  0  0  0  0  0  0  0  0  0  0  0
   -4.5117    2.6461    0.4769 Br  0  0  0  0  0  0  0  0  0  0  0  0
    0.7576   -3.3878    0.5065 H   0  0  0  0  0  0  0  0  0  0  0  0
   -0.4046   -2.7621    1.7006 H   0  0  0  0  0  0  0  0  0  0  0  0
   -0.9505   -3.1758    0.0829 H   0  0  0  0  0  0  0  0  0  0  0  0
    0.4247   -1.3186   -0.8844 H   0  0  0  0  0  0  0  0  0  0  0  0
    2.1384   -1.4791    1.0757 H   0  0  0  0  0  0  0  0  0  0  0  0
    1.0269   -0.5082    2.0218 H   0  0  0  0  0  0  0  0  0  0  0  0
    3.5032   -0.5054   -0.5901 H   0  0  0  0  0  0  0  0  0  0  0  0
    3.5286    3.1186   -2.0407 H   0  0  0  0  0  0  0  0  0  0  0  0
   -2.1557   -1.5037   -0.9937 H   0  0  0  0  0  0  0  0  0  0  0  0
   -1.3936    0.0125   -1.5322 H   0  0  0  0  0  0  0  0  0  0  0  0
   -3.8419    0.2736   -1.1522 H   0  0  0  0  0  0  0  0  0  0  0  0
   -3.6514   -0.2592    0.5201 H   0  0  0  0  0  0  0  0  0  0  0  0
   -2.3143    2.2575   -0.6284 H   0  0  0  0  0  0  0  0  0  0  0  0
   -2.2812    1.7236    1.0783 H   0  0  0  0  0  0  0  0  0  0  0  0
  1  2  1  0
  2  3  1  0
  3  4  1  0
  4  5  1  0
  4  6  2  3
  6  7  1  0
  7  8  2  0
  7  9  1  0
  2 10  1  0
 10 11  1  0
 11 12  1  0
 12 13  1  0
 13 14  1  0
  1 15  1  0
  1 16  1  0
  1 17  1  0
  2 18  1  0
  3 19  1  0
  3 20  1  0
  6 21  1  0
  9 22  1  0
 11 23  1  0
 11 24  1  0
 12 25  1  0
 12 26  1  0
 13 27  1  0
 13 28  1  0
M  END
>  <Rank>  (19) 
20

>  <Score>  (19) 
0.6550

>  <Pharma_Score>  (19) 
1.0000

>  <QED>  (19) 
0.4440

>  <MW>  (19) 
330.02

>  <LogP>  (19) 
2.93

>  <PSA>  (19) 
46.5

>  <SA_Score>  (19) 
3.76

>  <HBD>  (19) 
1

>  <HBA>  (19) 
2

>  <Lip_Violations>  (19) 
0

>  <SMILES>  (19) 
CC(CC(Br)=CC(=O)O)OCCCBr

$$$$
Candidata_021
     RDKit          3D

 43 43  0  0  0  0  0  0  0  0999 V2000
    6.6265   -0.0574   -4.1030 O   0  0  0  0  0  0  0  0  0  0  0  0
    5.4829    0.2320   -3.7982 C   0  0  0  0  0  0  0  0  0  0  0  0
    5.2119    0.9864   -2.7277 O   0  0  0  0  0  0  0  0  0  0  0  0
    4.3044   -0.1532   -4.5868 C   0  0  0  0  0  0  0  0  0  0  0  0
    3.0140   -0.1941   -4.2171 C   0  0  0  0  0  0  0  0  0  0  0  0
    2.4330    0.0863   -2.9164 C   0  0  0  0  0  0  0  0  0  0  0  0
    1.1690    1.4746   -2.9274 Br  0  0  0  0  0  0  0  0  0  0  0  0
    2.7516   -0.6472   -1.8327 C   0  0  0  0  0  0  0  0  0  0  0  0
    2.2265   -0.4955   -0.4898 C   0  0  0  0  0  0  0  0  0  0  0  0
    2.6141   -1.2673    0.5360 C   0  0  0  0  0  0  0  0  0  0  0  0
    2.0704   -1.0853    1.8355 C   0  0  0  0  0  0  0  0  0  0  0  0
    1.5917   -0.9199    2.9243 C   0  0  0  0  0  0  0  0  0  0  0  0
    0.9778   -0.7012    4.2420 C   0  0  0  0  0  0  0  0  0  0  0  0
   -0.3239    0.0529    4.0930 C   0  0  0  0  0  0  0  0  0  0  0  0
   -0.1216    1.8986    3.8088 Br  0  0  0  0  0  0  0  0  0  0  0  0
   -1.5219   -0.5575    4.1623 C   0  0  0  0  0  0  0  0  0  0  0  0
   -2.8801    0.0678    4.0129 C   0  0  0  0  0  0  0  0  0  0  0  0
   -3.4391   -0.2655    2.6339 C   0  0  0  0  0  0  0  0  0  0  0  0
   -4.2284   -1.1934    2.4854 O   0  0  0  0  0  0  0  0  0  0  0  0
   -2.9323    0.5636    1.6466 N   0  0  0  0  0  0  0  0  0  0  0  0
   -3.2257    0.5439    0.2689 C   0  0  0  0  0  0  0  0  0  0  0  0
   -2.5285    1.4462   -0.5454 C   0  0  0  0  0  0  0  0  0  0  0  0
   -2.7654    1.4949   -1.9216 C   0  0  0  0  0  0  0  0  0  0  0  0
   -3.7005    0.6399   -2.4974 C   0  0  0  0  0  0  0  0  0  0  0  0
   -4.3985   -0.2601   -1.6960 C   0  0  0  0  0  0  0  0  0  0  0  0
   -4.1631   -0.3075   -0.3179 C   0  0  0  0  0  0  0  0  0  0  0  0
    6.0882    1.1819   -2.3377 H   0  0  0  0  0  0  0  0  0  0  0  0
    4.5625   -0.4401   -5.6027 H   0  0  0  0  0  0  0  0  0  0  0  0
    2.2825   -0.4711   -4.9762 H   0  0  0  0  0  0  0  0  0  0  0  0
    3.4818   -1.4469   -1.9540 H   0  0  0  0  0  0  0  0  0  0  0  0
    1.4851    0.2805   -0.3136 H   0  0  0  0  0  0  0  0  0  0  0  0
    3.3508   -2.0542    0.4064 H   0  0  0  0  0  0  0  0  0  0  0  0
    0.8039   -1.6712    4.7240 H   0  0  0  0  0  0  0  0  0  0  0  0
    1.6633   -0.1562    4.9018 H   0  0  0  0  0  0  0  0  0  0  0  0
   -1.5457   -1.6369    4.3157 H   0  0  0  0  0  0  0  0  0  0  0  0
   -2.8819    1.1524    4.1570 H   0  0  0  0  0  0  0  0  0  0  0  0
   -3.5566   -0.3404    4.7727 H   0  0  0  0  0  0  0  0  0  0  0  0
   -2.2218    1.2254    1.9377 H   0  0  0  0  0  0  0  0  0  0  0  0
   -1.7899    2.1227   -0.1231 H   0  0  0  0  0  0  0  0  0  0  0  0
   -2.2183    2.1994   -2.5425 H   0  0  0  0  0  0  0  0  0  0  0  0
   -3.8859    0.6741   -3.5676 H   0  0  0  0  0  0  0  0  0  0  0  0
   -5.1308   -0.9300   -2.1394 H   0  0  0  0  0  0  0  0  0  0  0  0
   -4.7320   -1.0213    0.2692 H   0  0  0  0  0  0  0  0  0  0  0  0
  1  2  2  0
  2  3  1  0
  2  4  1  0
  4  5  2  3
  5  6  1  0
  6  7  1  0
  6  8  2  3
  8  9  1  0
  9 10  2  3
 10 11  1  0
 11 12  3  0
 12 13  1  0
 13 14  1  0
 14 15  1  0
 14 16  2  3
 16 17  1  0
 17 18  1  0
 18 19  2  0
 18 20  1  0
 20 21  1  0
 21 22  2  0
 22 23  1  0
 23 24  2  0
 24 25  1  0
 25 26  2  0
 26 21  1  0
  3 27  1  0
  4 28  1  0
  5 29  1  0
  8 30  1  0
  9 31  1  0
 10 32  1  0
 13 33  1  0
 13 34  1  0
 16 35  1  0
 17 36  1  0
 17 37  1  0
 20 38  1  0
 22 39  1  0
 23 40  1  0
 24 41  1  0
 25 42  1  0
 26 43  1  0
M  END
>  <Rank>  (20) 
21

>  <Score>  (20) 
0.6230

>  <Pharma_Score>  (20) 
1.0000

>  <QED>  (20) 
0.3230

>  <MW>  (20) 
479.17

>  <LogP>  (20) 
5.16

>  <PSA>  (20) 
66.4

>  <SA_Score>  (20) 
3.51

>  <HBD>  (20) 
2

>  <HBA>  (20) 
2

>  <Lip_Violations>  (20) 
1

>  <SMILES>  (20) 
O=C(O)C=CC(Br)=CC=CC#CCC(Br)=CCC(=O)Nc1ccccc1

$$$$
Candidata_022
     RDKit          3D

 18 17  0  0  0  0  0  0  0  0999 V2000
    5.0157    0.8493   -0.8859 O   0  0  0  0  0  0  0  0  0  0  0  0
    4.0009    0.1770   -0.8546 C   0  0  0  0  0  0  0  0  0  0  0  0
    3.9982   -1.1092   -1.2352 O   0  0  0  0  0  0  0  0  0  0  0  0
    2.6908    0.6737   -0.4098 C   0  0  0  0  0  0  0  0  0  0  0  0
    1.5804   -0.0824   -0.3816 C   0  0  0  0  0  0  0  0  0  0  0  0
    0.2398    0.3184    0.0418 C   0  0  0  0  0  0  0  0  0  0  0  0
   -0.0355    2.0889    0.6291 Br  0  0  0  0  0  0  0  0  0  0  0  0
   -0.7626   -0.5814    0.0029 C   0  0  0  0  0  0  0  0  0  0  0  0
   -2.1058   -0.3115    0.3881 C   0  0  0  0  0  0  0  0  0  0  0  0
   -3.2418   -0.0929    0.7110 C   0  0  0  0  0  0  0  0  0  0  0  0
   -4.6185    0.1866    1.1066 C   0  0  0  0  0  0  0  0  0  0  0  0
   -5.7281   -1.3986    0.8889 Br  0  0  0  0  0  0  0  0  0  0  0  0
    4.9284   -1.2751   -1.4958 H   0  0  0  0  0  0  0  0  0  0  0  0
    2.7069    1.7133   -0.1053 H   0  0  0  0  0  0  0  0  0  0  0  0
    1.6637   -1.1196   -0.7079 H   0  0  0  0  0  0  0  0  0  0  0  0
   -0.5722   -1.5947   -0.3407 H   0  0  0  0  0  0  0  0  0  0  0  0
   -5.0699    0.9674    0.4894 H   0  0  0  0  0  0  0  0  0  0  0  0
   -4.6906    0.4725    2.1589 H   0  0  0  0  0  0  0  0  0  0  0  0
  1  2  2  0
  2  3  1  0
  2  4  1  0
  4  5  2  3
  5  6  1  0
  6  7  1  0
  6  8  2  3
  8  9  1  0
  9 10  3  0
 10 11  1  0
 11 12  1  0
  3 13  1  0
  4 14  1  0
  5 15  1  0
  8 16  1  0
 11 17  1  0
 11 18  1  0
M  END
>  <Rank>  (21) 
22

>  <Score>  (21) 
0.6200

>  <Pharma_Score>  (21) 
1.0000

>  <QED>  (21) 
0.3670

>  <MW>  (21) 
293.94

>  <LogP>  (21) 
2.30

>  <PSA>  (21) 
37.3

>  <SA_Score>  (21) 
3.95

>  <HBD>  (21) 
1

>  <HBA>  (21) 
1

>  <Lip_Violations>  (21) 
0

>  <SMILES>  (21) 
O=C(O)C=CC(Br)=CC#CCBr

$$$$
Candidata_023
     RDKit          3D

 17 16  0  0  0  0  0  0  0  0999 V2000
    5.7803    0.0901   -1.3566 O   0  0  0  0  0  0  0  0  0  0  0  0
    5.0348   -0.1823   -0.4267 C   0  0  0  0  0  0  0  0  0  0  0  0
    3.6071   -0.0546   -0.5626 C   0  0  0  0  0  0  0  0  0  0  0  0
    2.4153    0.0497   -0.6693 C   0  0  0  0  0  0  0  0  0  0  0  0
    1.0037    0.1766   -0.8054 C   0  0  0  0  0  0  0  0  0  0  0  0
    0.1143   -0.1022    0.1679 C   0  0  0  0  0  0  0  0  0  0  0  0
    0.6600   -0.7093    1.8677 Br  0  0  0  0  0  0  0  0  0  0  0  0
   -1.3136    0.0682   -0.0941 C   0  0  0  0  0  0  0  0  0  0  0  0
   -2.3342   -0.1593    0.7498 C   0  0  0  0  0  0  0  0  0  0  0  0
   -3.7456    0.0429    0.3912 C   0  0  0  0  0  0  0  0  0  0  0  0
   -4.6808   -0.1587    1.1444 O   0  0  0  0  0  0  0  0  0  0  0  0
   -3.9341    0.4787   -0.8632 O   0  0  0  0  0  0  0  0  0  0  0  0
    5.3926   -0.5347    0.5533 H   0  0  0  0  0  0  0  0  0  0  0  0
    0.6586    0.5250   -1.7755 H   0  0  0  0  0  0  0  0  0  0  0  0
   -1.5539    0.4219   -1.0975 H   0  0  0  0  0  0  0  0  0  0  0  0
   -2.1961   -0.5112    1.7652 H   0  0  0  0  0  0  0  0  0  0  0  0
   -4.9083    0.5592   -0.9364 H   0  0  0  0  0  0  0  0  0  0  0  0
  1  2  2  0
  2  3  1  0
  3  4  3  0
  4  5  1  0
  5  6  2  3
  6  7  1  0
  6  8  1  0
  8  9  2  3
  9 10  1  0
 10 11  2  0
 10 12  1  0
  2 13  1  0
  5 14  1  0
  8 15  1  0
  9 16  1  0
 12 17  1  0
M  END
>  <Rank>  (22) 
23

>  <Score>  (22) 
0.6080

>  <Pharma_Score>  (22) 
1.0000

>  <QED>  (22) 
0.3340

>  <MW>  (22) 
229.03

>  <LogP>  (22) 
1.11

>  <PSA>  (22) 
54.4

>  <SA_Score>  (22) 
3.96

>  <HBD>  (22) 
1

>  <HBA>  (22) 
2

>  <Lip_Violations>  (22) 
0

>  <SMILES>  (22) 
O=CC#CC=C(Br)C=CC(=O)O

$$$$
Candidata_024
     RDKit          3D

 31 32  0  0  0  0  0  0  0  0999 V2000
    4.0718   -2.4788    2.1008 O   0  0  0  0  0  0  0  0  0  0  0  0
    3.3918   -1.5256    2.2001 C   0  0  0  0  0  0  0  0  0  0  0  0
    2.7084   -0.5799    2.3110 N   0  0  0  0  0  0  0  0  0  0  0  0
    1.4796   -0.6755    1.5127 C   0  0  0  0  0  0  0  0  0  0  0  0
    1.6343   -0.6470    0.0825 O   0  0  0  0  0  0  0  0  0  0  0  0
    1.4283    0.6049   -0.4366 C   0  0  0  0  0  0  0  0  0  0  0  0
    2.2861    1.6588   -0.1112 C   0  0  0  0  0  0  0  0  0  0  0  0
    2.0769    2.9135   -0.6779 C   0  0  0  0  0  0  0  0  0  0  0  0
    3.2266    4.3469   -0.2327 Br  0  0  0  0  0  0  0  0  0  0  0  0
    1.0313    3.1210   -1.5743 C   0  0  0  0  0  0  0  0  0  0  0  0
    0.1892    2.0601   -1.9139 C   0  0  0  0  0  0  0  0  0  0  0  0
    0.3807    0.7861   -1.3540 C   0  0  0  0  0  0  0  0  0  0  0  0
   -0.5446   -0.3500   -1.7367 C   0  0  0  0  0  0  0  0  0  0  0  0
   -1.4763   -0.7996   -0.6312 C   0  0  0  0  0  0  0  0  0  0  0  0
   -2.3670    0.0990   -0.0256 C   0  0  0  0  0  0  0  0  0  0  0  0
   -3.2232   -0.3274    0.9912 C   0  0  0  0  0  0  0  0  0  0  0  0
   -3.2051   -1.6567    1.4081 C   0  0  0  0  0  0  0  0  0  0  0  0
   -2.3334   -2.5621    0.8071 C   0  0  0  0  0  0  0  0  0  0  0  0
   -1.4760   -2.1374   -0.2092 C   0  0  0  0  0  0  0  0  0  0  0  0
    0.7895    0.1136    1.8450 H   0  0  0  0  0  0  0  0  0  0  0  0
    0.9571   -1.6140    1.7477 H   0  0  0  0  0  0  0  0  0  0  0  0
    3.1173    1.4995    0.5687 H   0  0  0  0  0  0  0  0  0  0  0  0
    0.8678    4.0993   -2.0190 H   0  0  0  0  0  0  0  0  0  0  0  0
   -0.6191    2.2339   -2.6216 H   0  0  0  0  0  0  0  0  0  0  0  0
    0.0712   -1.1887   -2.0874 H   0  0  0  0  0  0  0  0  0  0  0  0
   -1.1596   -0.0655   -2.6007 H   0  0  0  0  0  0  0  0  0  0  0  0
   -2.3975    1.1399   -0.3398 H   0  0  0  0  0  0  0  0  0  0  0  0
   -3.9069    0.3784    1.4558 H   0  0  0  0  0  0  0  0  0  0  0  0
   -3.8746   -1.9881    2.1976 H   0  0  0  0  0  0  0  0  0  0  0  0
   -2.3233   -3.6009    1.1270 H   0  0  0  0  0  0  0  0  0  0  0  0
   -0.8014   -2.8576   -0.6677 H   0  0  0  0  0  0  0  0  0  0  0  0
  1  2  2  0
  2  3  2  0
  3  4  1  0
  4  5  1  0
  5  6  1  0
  6  7  1  0
  7  8  2  0
  8  9  1  0
  8 10  1  0
 10 11  2  0
 11 12  1  0
 12 13  1  0
 13 14  1  0
 14 15  2  0
 15 16  1  0
 16 17  2  0
 17 18  1  0
 18 19  2  0
 12  6  2  0
 19 14  1  0
  4 20  1  0
  4 21  1  0
  7 22  1  0
 10 23  1  0
 11 24  1  0
 13 25  1  0
 13 26  1  0
 15 27  1  0
 16 28  1  0
 17 29  1  0
 18 30  1  0
 19 31  1  0
M  END
>  <Rank>  (23) 
24

>  <Score>  (23) 
0.5450

>  <Pharma_Score>  (23) 
0.5000

>  <QED>  (23) 
0.6230

>  <MW>  (23) 
318.17

>  <LogP>  (23) 
3.71

>  <PSA>  (23) 
38.7

>  <SA_Score>  (23) 
2.46

>  <HBD>  (23) 
0

>  <HBA>  (23) 
3

>  <Lip_Violations>  (23) 
0

>  <SMILES>  (23) 
O=C=NCOc1cc(Br)ccc1Cc1ccccc1

$$$$
Candidata_025
     RDKit          3D

 17 17  0  0  0  0  0  0  0  0999 V2000
   -1.6710    2.4898    0.3033 O   0  0  0  0  0  0  0  0  0  0  0  0
   -1.0524    1.4634    0.0307 C   0  0  0  0  0  0  0  0  0  0  0  0
   -1.7124    0.2760   -0.6241 C   0  0  0  0  0  0  0  0  0  0  0  0
   -1.7406   -0.8698    0.3387 C   0  0  0  0  0  0  0  0  0  0  0  0
   -3.4347   -1.4649    0.8577 Br  0  0  0  0  0  0  0  0  0  0  0  0
   -0.6244   -1.4486    0.8049 C   0  0  0  0  0  0  0  0  0  0  0  0
    0.7049   -1.0481    0.4095 C   0  0  0  0  0  0  0  0  0  0  0  0
    1.1136    0.2090    0.1526 C   0  0  0  0  0  0  0  0  0  0  0  0
    2.5383    0.5352   -0.1804 C   0  0  0  0  0  0  0  0  0  0  0  0
    2.6442    0.9214   -2.0855 Br  0  0  0  0  0  0  0  0  0  0  0  0
    0.2889    1.3648    0.2723 O   0  0  0  0  0  0  0  0  0  0  0  0
   -2.7204    0.5810   -0.9299 H   0  0  0  0  0  0  0  0  0  0  0  0
   -1.1865    0.0249   -1.5524 H   0  0  0  0  0  0  0  0  0  0  0  0
   -0.6860   -2.2956    1.4856 H   0  0  0  0  0  0  0  0  0  0  0  0
    1.4243   -1.8647    0.3536 H   0  0  0  0  0  0  0  0  0  0  0  0
    3.2244   -0.2951    0.0084 H   0  0  0  0  0  0  0  0  0  0  0  0
    2.8897    1.4212    0.3549 H   0  0  0  0  0  0  0  0  0  0  0  0
  1  2  2  0
  2  3  1  0
  3  4  1  0
  4  5  1  0
  4  6  2  0
  6  7  1  0
  7  8  2  0
  8  9  1  0
  9 10  1  0
  8 11  1  0
 11  2  1  0
  3 12  1  0
  3 13  1  0
  6 14  1  0
  7 15  1  0
  9 16  1  0
  9 17  1  0
M  END
>  <Rank>  (24) 
25

>  <Score>  (24) 
0.4520

>  <Pharma_Score>  (24) 
0.5000

>  <QED>  (24) 
0.5450

>  <MW>  (24) 
281.93

>  <LogP>  (24) 
2.49

>  <PSA>  (24) 
26.3

>  <SA_Score>  (24) 
4.09

>  <HBD>  (24) 
0

>  <HBA>  (24) 
2

>  <Lip_Violations>  (24) 
0

>  <SMILES>  (24) 
O=C1CC(Br)=CC=C(CBr)O1

$$$$
Candidata_026
     RDKit          3D

  7  6  0  0  0  0  0  0  0  0999 V2000
   -0.7092   -0.0785    0.0874 C   0  0  0  0  0  0  0  0  0  0  0  0
    0.7492    0.2472    0.0148 C   0  0  0  0  0  0  0  0  0  0  0  0
    1.2751    1.2156    0.5437 O   0  0  0  0  0  0  0  0  0  0  0  0
    1.8929   -0.9251   -0.9732 Br  0  0  0  0  0  0  0  0  0  0  0  0
   -1.1366   -0.0869   -0.9183 H   0  0  0  0  0  0  0  0  0  0  0  0
   -0.8473   -1.0528    0.5627 H   0  0  0  0  0  0  0  0  0  0  0  0
   -1.2240    0.6805    0.6830 H   0  0  0  0  0  0  0  0  0  0  0  0
  1  2  1  0
  2  3  2  0
  2  4  1  0
  1  5  1  0
  1  6  1  0
  1  7  1  0
M  END
>  <Rank>  (25) 
26

>  <Score>  (25) 
0.3740

>  <Pharma_Score>  (25) 
0.2500

>  <QED>  (25) 
0.4380

>  <MW>  (25) 
122.95

>  <LogP>  (25) 
0.93

>  <PSA>  (25) 
17.1

>  <SA_Score>  (25) 
2.30

>  <HBD>  (25) 
0

>  <HBA>  (25) 
1

>  <Lip_Violations>  (25) 
0

>  <SMILES>  (25) 
CC(=O)Br

$$$$
Candidata_027
     RDKit          3D

  3  2  0  0  0  0  0  0  0  0999 V2000
   -1.3576   -0.2943    0.0000 O   0  0  0  0  0  0  0  0  0  0  0  0
   -0.0000    0.0675    0.0000 C   0  0  0  0  0  0  0  0  0  0  0  0
    1.3576    0.4294    0.0000 O   0  0  0  0  0  0  0  0  0  0  0  0
  1  2  2  0
  2  3  2  0
M  END
>  <Rank>  (26) 
27

>  <Score>  (26) 
0.3030

>  <Pharma_Score>  (26) 
0.2500

>  <QED>  (26) 
0.3640

>  <MW>  (26) 
44.01

>  <LogP>  (26) 
-0.58

>  <PSA>  (26) 
34.1

>  <SA_Score>  (26) 
3.41

>  <HBD>  (26) 
0

>  <HBA>  (26) 
2

>  <Lip_Violations>  (26) 
0

>  <SMILES>  (26) 
O=C=O

$$$$
