Candidata_001
     RDKit          3D

 18 19  0  0  0  0  0  0  0  0999 V2000
    1.9103   -0.4617    2.9783 O   0  0  0  0  0  0  0  0  0  0  0  0
    2.7065   -0.6021    2.0702 C   0  0  0  0  0  0  0  0  0  0  0  0
    3.9961   -0.8978    2.3228 O   0  0  0  0  0  0  0  0  0  0  0  0
    2.4438   -0.4797    0.6157 C   0  0  0  0  0  0  0  0  0  0  0  0
    3.4870   -0.1298   -0.2561 C   0  0  0  0  0  0  0  0  0  0  0  0
    3.2405   -0.0072   -1.6237 C   0  0  0  0  0  0  0  0  0  0  0  0
    4.6506    0.4674   -2.7904 Br  0  0  0  0  0  0  0  0  0  0  0  0
    1.9666   -0.2349   -2.1399 C   0  0  0  0  0  0  0  0  0  0  0  0
    0.9267   -0.5850   -1.2792 C   0  0  0  0  0  0  0  0  0  0  0  0
    1.1583   -0.6874    0.0964 C   0  0  0  0  0  0  0  0  0  0  0  0
    0.1123   -1.0977    0.8799 O   0  0  0  0  0  0  0  0  0  0  0  0
   -0.6316    0.0177    1.3974 C   0  0  0  0  0  0  0  0  0  0  0  0
   -1.8653    0.2685    0.5622 C   0  0  0  0  0  0  0  0  0  0  0  0
   -2.8135   -0.7481    0.3760 C   0  0  0  0  0  0  0  0  0  0  0  0
   -3.9535   -0.5209   -0.3958 C   0  0  0  0  0  0  0  0  0  0  0  0
   -4.1581    0.7241   -0.9874 C   0  0  0  0  0  0  0  0  0  0  0  0
   -3.2236    1.7426   -0.8078 C   0  0  0  0  0  0  0  0  0  0  0  0
   -2.0824    1.5174   -0.0361 C   0  0  0  0  0  0  0  0  0  0  0  0
  1  2  2  0
  2  3  1  0
  2  4  1  0
  4  5  1  0
  5  6  2  0
  6  7  1  0
  6  8  1  0
  8  9  2  0
  9 10  1  0
 10 11  1  0
 11 12  1  0
 12 13  1  0
 13 14  2  0
 14 15  1  0
 15 16  2  0
 16 17  1  0
 17 18  2  0
 10  4  2  0
 18 13  1  0
M  END
>  <Rank>  (1) 
1

>  <Score>  (1) 
0.9160

>  <Pharma_Score>  (1) 
1.0000

>  <QED>  (1) 
0.9360

>  <MW>  (1) 
307.14

>  <LogP>  (1) 
3.73

>  <PSA>  (1) 
46.5

>  <SA_Score>  (1) 
1.55

>  <HBD>  (1) 
1

>  <HBA>  (1) 
2

>  <Lip_Violations>  (1) 
0

>  <SMILES>  (1) 
O=C(O)c1cc(Br)ccc1OCc1ccccc1

$$$$
Candidata_002
     RDKit          3D

 17 18  0  0  0  0  0  0  0  0999 V2000
   -1.0511   -1.5854    2.4032 O   0  0  0  0  0  0  0  0  0  0  0  0
   -1.1758   -1.4630    1.1989 C   0  0  0  0  0  0  0  0  0  0  0  0
   -0.9549   -2.4909    0.3632 O   0  0  0  0  0  0  0  0  0  0  0  0
   -1.7010   -0.2669    0.5031 C   0  0  0  0  0  0  0  0  0  0  0  0
   -2.7556    0.3946    1.1534 C   0  0  0  0  0  0  0  0  0  0  0  0
   -3.3316    1.5227    0.5776 C   0  0  0  0  0  0  0  0  0  0  0  0
   -4.7586    2.4002    1.4527 Br  0  0  0  0  0  0  0  0  0  0  0  0
   -2.8653    2.0082   -0.6392 C   0  0  0  0  0  0  0  0  0  0  0  0
   -1.8040    1.3659   -1.2807 C   0  0  0  0  0  0  0  0  0  0  0  0
   -1.1965    0.2250   -0.7194 C   0  0  0  0  0  0  0  0  0  0  0  0
   -0.0090   -0.3821   -1.4411 C   0  0  0  0  0  0  0  0  0  0  0  0
    1.3069   -0.2768   -0.7005 C   0  0  0  0  0  0  0  0  0  0  0  0
    2.0987   -1.4181   -0.5066 C   0  0  0  0  0  0  0  0  0  0  0  0
    3.3225   -1.3302    0.1591 C   0  0  0  0  0  0  0  0  0  0  0  0
    3.7735   -0.0994    0.6305 C   0  0  0  0  0  0  0  0  0  0  0  0
    3.0040    1.0448    0.4325 C   0  0  0  0  0  0  0  0  0  0  0  0
    1.7802    0.9588   -0.2337 C   0  0  0  0  0  0  0  0  0  0  0  0
  1  2  2  0
  2  3  1  0
  2  4  1  0
  4  5  1  0
  5  6  2  0
  6  7  1  0
  6  8  1  0
  8  9  2  0
  9 10  1  0
 10 11  1  0
 11 12  1  0
 12 13  2  0
 13 14  1  0
 14 15  2  0
 15 16  1  0
 16 17  2  0
 10  4  2  0
 17 12  1  0
M  END
>  <Rank>  (2) 
2

>  <Score>  (2) 
0.9110

>  <Pharma_Score>  (2) 
1.0000

>  <QED>  (2) 
0.9350

>  <MW>  (2) 
291.14

>  <LogP>  (2) 
3.74

>  <PSA>  (2) 
37.3

>  <SA_Score>  (2) 
1.66

>  <HBD>  (2) 
1

>  <HBA>  (2) 
1

>  <Lip_Violations>  (2) 
0

>  <SMILES>  (2) 
O=C(O)c1cc(Br)ccc1Cc1ccccc1

$$$$
Candidata_003
     RDKit          3D

 18 19  0  0  0  0  0  0  0  0999 V2000
   -1.1327    2.1350   -0.8831 O   0  0  0  0  0  0  0  0  0  0  0  0
   -2.2265    1.6159   -0.7754 C   0  0  0  0  0  0  0  0  0  0  0  0
   -3.3146    2.1912   -1.3214 O   0  0  0  0  0  0  0  0  0  0  0  0
   -2.5576    0.3341   -0.0901 C   0  0  0  0  0  0  0  0  0  0  0  0
   -3.8669    0.1492    0.3893 C   0  0  0  0  0  0  0  0  0  0  0  0
   -4.2126   -1.0228    1.0577 C   0  0  0  0  0  0  0  0  0  0  0  0
   -5.9764   -1.2537    1.6979 Br  0  0  0  0  0  0  0  0  0  0  0  0
   -3.2691   -2.0226    1.2629 C   0  0  0  0  0  0  0  0  0  0  0  0
   -1.9675   -1.8497    0.7917 C   0  0  0  0  0  0  0  0  0  0  0  0
   -1.5918   -0.6777    0.1062 C   0  0  0  0  0  0  0  0  0  0  0  0
   -0.1600   -0.5736   -0.3756 C   0  0  0  0  0  0  0  0  0  0  0  0
    0.7553    0.0619    0.6760 C   0  0  0  0  0  0  0  0  0  0  0  0
    2.1709    0.1946    0.1719 C   0  0  0  0  0  0  0  0  0  0  0  0
    2.5319    1.2853   -0.6306 C   0  0  0  0  0  0  0  0  0  0  0  0
    3.8348    1.4057   -1.1154 C   0  0  0  0  0  0  0  0  0  0  0  0
    4.7866    0.4360   -0.8056 C   0  0  0  0  0  0  0  0  0  0  0  0
    4.4360   -0.6553   -0.0124 C   0  0  0  0  0  0  0  0  0  0  0  0
    3.1331   -0.7778    0.4733 C   0  0  0  0  0  0  0  0  0  0  0  0
  1  2  2  0
  2  3  1  0
  2  4  1  0
  4  5  1  0
  5  6  2  0
  6  7  1  0
  6  8  1  0
  8  9  2  0
  9 10  1  0
 10 11  1  0
 11 12  1  0
 12 13  1  0
 13 14  2  0
 14 15  1  0
 15 16  2  0
 16 17  1  0
 17 18  2  0
 10  4  2  0
 18 13  1  0
M  END
>  <Rank>  (3) 
3

>  <Score>  (3) 
0.9080

>  <Pharma_Score>  (3) 
1.0000

>  <QED>  (3) 
0.9290

>  <MW>  (3) 
305.17

>  <LogP>  (3) 
3.93

>  <PSA>  (3) 
37.3

>  <SA_Score>  (3) 
1.69

>  <HBD>  (3) 
1

>  <HBA>  (3) 
1

>  <Lip_Violations>  (3) 
0

>  <SMILES>  (3) 
O=C(O)c1cc(Br)ccc1CCc1ccccc1

$$$$
Candidata_004
     RDKit          3D

 16 17  0  0  0  0  0  0  0  0999 V2000
   -2.3858   -1.9283    1.3087 O   0  0  0  0  0  0  0  0  0  0  0  0
   -1.8202   -1.3675    0.3898 C   0  0  0  0  0  0  0  0  0  0  0  0
   -1.3753   -2.0237   -0.6937 O   0  0  0  0  0  0  0  0  0  0  0  0
   -1.6282    0.0883    0.2592 C   0  0  0  0  0  0  0  0  0  0  0  0
   -2.7733    0.8832    0.4177 C   0  0  0  0  0  0  0  0  0  0  0  0
   -2.6741    2.2643    0.2867 C   0  0  0  0  0  0  0  0  0  0  0  0
   -4.2152    3.3398    0.4855 Br  0  0  0  0  0  0  0  0  0  0  0  0
   -1.4471    2.8601    0.0088 C   0  0  0  0  0  0  0  0  0  0  0  0
   -0.3042    2.0662   -0.1281 C   0  0  0  0  0  0  0  0  0  0  0  0
   -0.3673    0.6655    0.0025 C   0  0  0  0  0  0  0  0  0  0  0  0
    0.8754   -0.1169   -0.0884 C   0  0  0  0  0  0  0  0  0  0  0  0
    1.5742   -0.2188   -1.3019 C   0  0  0  0  0  0  0  0  0  0  0  0
    2.7592   -0.9539   -1.3862 C   0  0  0  0  0  0  0  0  0  0  0  0
    3.2641   -1.5950   -0.2573 C   0  0  0  0  0  0  0  0  0  0  0  0
    2.5858   -1.5023    0.9558 C   0  0  0  0  0  0  0  0  0  0  0  0
    1.4006   -0.7676    1.0401 C   0  0  0  0  0  0  0  0  0  0  0  0
  1  2  2  0
  2  3  1  0
  2  4  1  0
  4  5  1  0
  5  6  2  0
  6  7  1  0
  6  8  1  0
  8  9  2  0
  9 10  1  0
 10 11  1  0
 11 12  2  0
 12 13  1  0
 13 14  2  0
 14 15  1  0
 15 16  2  0
 10  4  2  0
 16 11  1  0
M  END
>  <Rank>  (4) 
4

>  <Score>  (4) 
0.9060

>  <Pharma_Score>  (4) 
1.0000

>  <QED>  (4) 
0.9060

>  <MW>  (4) 
277.12

>  <LogP>  (4) 
3.81

>  <PSA>  (4) 
37.3

>  <SA_Score>  (4) 
1.53

>  <HBD>  (4) 
1

>  <HBA>  (4) 
1

>  <Lip_Violations>  (4) 
0

>  <SMILES>  (4) 
O=C(O)c1cc(Br)ccc1-c1ccccc1

$$$$
Candidata_005
     RDKit          3D

 13 13  0  0  0  0  0  0  0  0999 V2000
    3.6090    0.1518    0.1471 C   0  0  0  0  0  0  0  0  0  0  0  0
    2.2930   -0.5351   -0.1891 C   0  0  0  0  0  0  0  0  0  0  0  0
    1.0977    0.3931    0.0650 C   0  0  0  0  0  0  0  0  0  0  0  0
   -0.2926   -0.1768   -0.1653 C   0  0  0  0  0  0  0  0  0  0  0  0
   -0.4729   -1.4399   -0.7609 C   0  0  0  0  0  0  0  0  0  0  0  0
   -1.7487   -1.9708   -0.9689 C   0  0  0  0  0  0  0  0  0  0  0  0
   -2.8697   -1.2449   -0.5888 C   0  0  0  0  0  0  0  0  0  0  0  0
   -4.5945   -1.9634   -0.8739 Br  0  0  0  0  0  0  0  0  0  0  0  0
   -2.7294    0.0097   -0.0053 C   0  0  0  0  0  0  0  0  0  0  0  0
   -1.4494    0.5533    0.2095 C   0  0  0  0  0  0  0  0  0  0  0  0
   -1.3529    1.9146    0.8153 C   0  0  0  0  0  0  0  0  0  0  0  0
   -0.4255    2.6964    0.7351 O   0  0  0  0  0  0  0  0  0  0  0  0
   -2.4502    2.2303    1.5296 O   0  0  0  0  0  0  0  0  0  0  0  0
  1  2  1  0
  2  3  1  0
  3  4  1  0
  4  5  1  0
  5  6  2  0
  6  7  1  0
  7  8  1  0
  7  9  2  0
  9 10  1  0
 10 11  1  0
 11 12  2  0
 11 13  1  0
 10  4  2  0
M  END
>  <Rank>  (5) 
5

>  <Score>  (5) 
0.8870

>  <Pharma_Score>  (5) 
1.0000

>  <QED>  (5) 
0.8850

>  <MW>  (5) 
243.10

>  <LogP>  (5) 
3.10

>  <PSA>  (5) 
37.3

>  <SA_Score>  (5) 
1.83

>  <HBD>  (5) 
1

>  <HBA>  (5) 
1

>  <Lip_Violations>  (5) 
0

>  <SMILES>  (5) 
CCCc1ccc(Br)cc1C(=O)O

$$$$
Candidata_006
     RDKit          3D

 12 12  0  0  0  0  0  0  0  0999 V2000
   -2.0213   -1.2334    0.8701 C   0  0  0  0  0  0  0  0  0  0  0  0
   -1.1835   -1.2656   -0.4005 C   0  0  0  0  0  0  0  0  0  0  0  0
    0.1256   -0.5222   -0.2537 C   0  0  0  0  0  0  0  0  0  0  0  0
    1.3059   -1.2846   -0.1529 C   0  0  0  0  0  0  0  0  0  0  0  0
    2.5478   -0.6747    0.0373 C   0  0  0  0  0  0  0  0  0  0  0  0
    2.6277    0.7094    0.1394 C   0  0  0  0  0  0  0  0  0  0  0  0
    4.3061    1.5352    0.4097 Br  0  0  0  0  0  0  0  0  0  0  0  0
    1.4795    1.4894    0.0446 C   0  0  0  0  0  0  0  0  0  0  0  0
    0.2296    0.8829   -0.1653 C   0  0  0  0  0  0  0  0  0  0  0  0
   -0.9180    1.8160   -0.2490 C   0  0  0  0  0  0  0  0  0  0  0  0
   -1.0496    2.8337    0.4054 O   0  0  0  0  0  0  0  0  0  0  0  0
   -1.7932    1.4851   -1.2105 O   0  0  0  0  0  0  0  0  0  0  0  0
  1  2  1  0
  2  3  1  0
  3  4  1  0
  4  5  2  0
  5  6  1  0
  6  7  1  0
  6  8  2  0
  8  9  1  0
  9 10  1  0
 10 11  2  0
 10 12  1  0
  9  3  2  0
M  END
>  <Rank>  (6) 
6

>  <Score>  (6) 
0.8740

>  <Pharma_Score>  (6) 
1.0000

>  <QED>  (6) 
0.8460

>  <MW>  (6) 
229.07

>  <LogP>  (6) 
2.71

>  <PSA>  (6) 
37.3

>  <SA_Score>  (6) 
1.80

>  <HBD>  (6) 
1

>  <HBA>  (6) 
1

>  <Lip_Violations>  (6) 
0

>  <SMILES>  (6) 
CCc1ccc(Br)cc1C(=O)O

$$$$
Candidata_007
     RDKit          3D

 10 10  0  0  0  0  0  0  0  0999 V2000
    2.8237   -1.0762    0.2940 O   0  0  0  0  0  0  0  0  0  0  0  0
    2.1240   -0.1025    0.0865 C   0  0  0  0  0  0  0  0  0  0  0  0
    2.6607    1.1112   -0.1278 O   0  0  0  0  0  0  0  0  0  0  0  0
    0.6424   -0.0930    0.0380 C   0  0  0  0  0  0  0  0  0  0  0  0
   -0.0349   -1.3024    0.2470 C   0  0  0  0  0  0  0  0  0  0  0  0
   -1.4299   -1.3421    0.2106 C   0  0  0  0  0  0  0  0  0  0  0  0
   -2.1527   -0.1746   -0.0346 C   0  0  0  0  0  0  0  0  0  0  0  0
   -1.4771    1.0280   -0.2424 C   0  0  0  0  0  0  0  0  0  0  0  0
   -2.4627    2.6075   -0.5744 Br  0  0  0  0  0  0  0  0  0  0  0  0
   -0.0839    1.0783   -0.2081 C   0  0  0  0  0  0  0  0  0  0  0  0
  1  2  2  0
  2  3  1  0
  2  4  1  0
  4  5  2  0
  5  6  1  0
  6  7  2  0
  7  8  1  0
  8  9  1  0
  8 10  2  0
 10  4  1  0
M  END
>  <Rank>  (7) 
7

>  <Score>  (7) 
0.8560

>  <Pharma_Score>  (7) 
1.0000

>  <QED>  (7) 
0.7550

>  <MW>  (7) 
201.02

>  <LogP>  (7) 
2.15

>  <PSA>  (7) 
37.3

>  <SA_Score>  (7) 
1.45

>  <HBD>  (7) 
1

>  <HBA>  (7) 
1

>  <Lip_Violations>  (7) 
0

>  <SMILES>  (7) 
O=C(O)c1cccc(Br)c1

$$$$
Candidata_008
     RDKit          3D

 16 17  0  0  0  0  0  0  0  0999 V2000
    2.7707    2.0470    1.0933 O   0  0  0  0  0  0  0  0  0  0  0  0
    2.3159    1.6634   -0.1948 C   0  0  0  0  0  0  0  0  0  0  0  0
    2.0450    0.1811   -0.2042 C   0  0  0  0  0  0  0  0  0  0  0  0
    2.9299   -0.6553   -0.9119 C   0  0  0  0  0  0  0  0  0  0  0  0
    2.7299   -2.0342   -0.9531 C   0  0  0  0  0  0  0  0  0  0  0  0
    3.9327   -3.1288   -1.9176 Br  0  0  0  0  0  0  0  0  0  0  0  0
    1.6540   -2.6096   -0.2899 C   0  0  0  0  0  0  0  0  0  0  0  0
    0.7742   -1.7970    0.4242 C   0  0  0  0  0  0  0  0  0  0  0  0
    0.9517   -0.3995    0.4788 C   0  0  0  0  0  0  0  0  0  0  0  0
   -0.0357    0.4168    1.2949 C   0  0  0  0  0  0  0  0  0  0  0  0
   -1.4575    0.3759    0.7733 C   0  0  0  0  0  0  0  0  0  0  0  0
   -1.7645    0.8374   -0.5154 C   0  0  0  0  0  0  0  0  0  0  0  0
   -3.0786    0.8085   -0.9854 C   0  0  0  0  0  0  0  0  0  0  0  0
   -4.1005    0.3240   -0.1717 C   0  0  0  0  0  0  0  0  0  0  0  0
   -3.8099   -0.1311    1.1128 C   0  0  0  0  0  0  0  0  0  0  0  0
   -2.4962   -0.1038    1.5844 C   0  0  0  0  0  0  0  0  0  0  0  0
  1  2  1  0
  2  3  1  0
  3  4  1  0
  4  5  2  0
  5  6  1  0
  5  7  1  0
  7  8  2  0
  8  9  1  0
  9 10  1  0
 10 11  1  0
 11 12  2  0
 12 13  1  0
 13 14  2  0
 14 15  1  0
 15 16  2  0
  9  3  2  0
 16 11  1  0
M  END
>  <Rank>  (8) 
8

>  <Score>  (8) 
0.7860

>  <Pharma_Score>  (8) 
0.7500

>  <QED>  (8) 
0.9100

>  <MW>  (8) 
277.16

>  <LogP>  (8) 
3.53

>  <PSA>  (8) 
20.2

>  <SA_Score>  (8) 
1.74

>  <HBD>  (8) 
1

>  <HBA>  (8) 
1

>  <Lip_Violations>  (8) 
0

>  <SMILES>  (8) 
OCc1cc(Br)ccc1Cc1ccccc1

$$$$
Candidata_009
     RDKit          3D

 16 17  0  0  0  0  0  0  0  0999 V2000
    1.8813    1.6699   -2.7913 O   0  0  0  0  0  0  0  0  0  0  0  0
    1.2514    0.8024   -2.2188 C   0  0  0  0  0  0  0  0  0  0  0  0
    0.3117    0.0715   -2.8408 O   0  0  0  0  0  0  0  0  0  0  0  0
    1.4758    0.3377   -0.8351 C   0  0  0  0  0  0  0  0  0  0  0  0
    2.8140    0.0956   -0.4868 C   0  0  0  0  0  0  0  0  0  0  0  0
    3.1243   -0.3849    0.7813 C   0  0  0  0  0  0  0  0  0  0  0  0
    4.9252   -0.7252    1.2425 Br  0  0  0  0  0  0  0  0  0  0  0  0
    2.1165   -0.6254    1.7088 C   0  0  0  0  0  0  0  0  0  0  0  0
    0.7862   -0.3647    1.3708 C   0  0  0  0  0  0  0  0  0  0  0  0
    0.4382    0.1430    0.1009 C   0  0  0  0  0  0  0  0  0  0  0  0
   -1.0208    0.4606   -0.2083 C   0  0  0  0  0  0  0  0  0  0  0  0
   -1.6599    1.3483    0.8718 C   0  0  0  0  0  0  0  0  0  0  0  0
   -2.7321    0.8581    1.4152 C   0  0  0  0  0  0  0  0  0  0  0  0
   -3.4582   -0.2103    1.3116 C   0  0  0  0  0  0  0  0  0  0  0  0
   -2.9607   -1.1392    0.3033 C   0  0  0  0  0  0  0  0  0  0  0  0
   -1.8430   -0.8427   -0.4052 C   0  0  0  0  0  0  0  0  0  0  0  0
  1  2  2  0
  2  3  1  0
  2  4  1  0
  4  5  1  0
  5  6  2  0
  6  7  1  0
  6  8  1  0
  8  9  2  0
  9 10  1  0
 10 11  1  0
 11 12  1  0
 12 13  2  0
 13 14  2  0
 14 15  1  0
 15 16  2  0
 10  4  2  0
 16 11  1  0
M  END
>  <Rank>  (9) 
9

>  <Score>  (9) 
0.7840

>  <Pharma_Score>  (9) 
1.0000

>  <QED>  (9) 
0.8400

>  <MW>  (9) 
277.12

>  <LogP>  (9) 
3.51

>  <PSA>  (9) 
37.3

>  <SA_Score>  (9) 
3.99

>  <HBD>  (9) 
1

>  <HBA>  (9) 
1

>  <Lip_Violations>  (9) 
0

>  <SMILES>  (9) 
O=C(O)c1cc(Br)ccc1C1C=C=CC=C1

$$$$
Candidata_010
     RDKit          3D

 16 16  0  0  0  0  0  0  0  0999 V2000
    4.7735    1.0737   -1.6757 O   0  0  0  0  0  0  0  0  0  0  0  0
    5.1513    0.4676   -0.6919 C   0  0  0  0  0  0  0  0  0  0  0  0
    6.4498    0.3447   -0.3778 O   0  0  0  0  0  0  0  0  0  0  0  0
    4.3216   -0.2236    0.3032 C   0  0  0  0  0  0  0  0  0  0  0  0
    2.9847   -0.2038    0.1766 C   0  0  0  0  0  0  0  0  0  0  0  0
    2.0103   -0.8255    1.0622 C   0  0  0  0  0  0  0  0  0  0  0  0
    2.5705   -1.3462    2.7899 Br  0  0  0  0  0  0  0  0  0  0  0  0
    0.7137   -1.0022    0.7423 C   0  0  0  0  0  0  0  0  0  0  0  0
    0.0126   -0.7055   -0.5467 C   0  0  0  0  0  0  0  0  0  0  0  0
   -0.8270    0.4596   -0.3361 N   0  0  0  0  0  0  0  0  0  0  0  0
   -2.2052    0.3558   -0.1474 C   0  0  0  0  0  0  0  0  0  0  0  0
   -2.8446   -0.7957    0.3261 C   0  0  0  0  0  0  0  0  0  0  0  0
   -4.2250   -0.8179    0.5586 C   0  0  0  0  0  0  0  0  0  0  0  0
   -4.9889    0.3253    0.3475 C   0  0  0  0  0  0  0  0  0  0  0  0
   -4.3693    1.4933   -0.0820 C   0  0  0  0  0  0  0  0  0  0  0  0
   -2.9901    1.5076   -0.3125 C   0  0  0  0  0  0  0  0  0  0  0  0
  1  2  2  0
  2  3  1  0
  2  4  1  0
  4  5  2  3
  5  6  1  0
  6  7  1  0
  6  8  2  3
  8  9  1  0
  9 10  1  0
 10 11  1  0
 11 12  2  0
 12 13  1  0
 13 14  2  0
 14 15  1  0
 15 16  2  0
 16 11  1  0
M  END
>  <Rank>  (10) 
10

>  <Score>  (10) 
0.7720

>  <Pharma_Score>  (10) 
1.0000

>  <QED>  (10) 
0.6440

>  <MW>  (10) 
282.14

>  <LogP>  (10) 
3.02

>  <PSA>  (10) 
49.3

>  <SA_Score>  (10) 
2.58

>  <HBD>  (10) 
2

>  <HBA>  (10) 
2

>  <Lip_Violations>  (10) 
0

>  <SMILES>  (10) 
O=C(O)C=CC(Br)=CCNc1ccccc1

$$$$
Candidata_011
     RDKit          3D

 17 17  0  0  0  0  0  0  0  0999 V2000
    4.5619   -2.6465   -0.3420 C   0  0  0  0  0  0  0  0  0  0  0  0
    4.3484   -1.8854    0.5615 C   0  0  0  0  0  0  0  0  0  0  0  0
    4.1051   -0.9895    1.6382 C   0  0  0  0  0  0  0  0  0  0  0  0
    3.1097   -0.0904    1.6705 C   0  0  0  0  0  0  0  0  0  0  0  0
    2.1216    0.1295    0.6363 C   0  0  0  0  0  0  0  0  0  0  0  0
    1.1469    1.0465    0.7433 C   0  0  0  0  0  0  0  0  0  0  0  0
    0.1219    1.3116   -0.3293 C   0  0  0  0  0  0  0  0  0  0  0  0
   -1.2628    0.7346   -0.0868 C   0  0  0  0  0  0  0  0  0  0  0  0
   -1.6862    0.3697    1.2065 C   0  0  0  0  0  0  0  0  0  0  0  0
   -2.9503   -0.1850    1.4291 C   0  0  0  0  0  0  0  0  0  0  0  0
   -3.8183   -0.3812    0.3617 C   0  0  0  0  0  0  0  0  0  0  0  0
   -5.5218   -1.1414    0.6634 Br  0  0  0  0  0  0  0  0  0  0  0  0
   -3.4417   -0.0140   -0.9249 C   0  0  0  0  0  0  0  0  0  0  0  0
   -2.1798    0.5609   -1.1503 C   0  0  0  0  0  0  0  0  0  0  0  0
   -1.8992    0.9400   -2.5556 C   0  0  0  0  0  0  0  0  0  0  0  0
   -2.2618    0.3271   -3.5419 O   0  0  0  0  0  0  0  0  0  0  0  0
   -1.2654    2.1197   -2.6559 O   0  0  0  0  0  0  0  0  0  0  0  0
  1  2  3  0
  2  3  1  0
  3  4  2  3
  4  5  1  0
  5  6  2  3
  6  7  1  0
  7  8  1  0
  8  9  1  0
  9 10  2  0
 10 11  1  0
 11 12  1  0
 11 13  2  0
 13 14  1  0
 14 15  1  0
 15 16  2  0
 15 17  1  0
 14  8  2  0
M  END
>  <Rank>  (11) 
11

>  <Score>  (11) 
0.7690

>  <Pharma_Score>  (11) 
1.0000

>  <QED>  (11) 
0.6810

>  <MW>  (11) 
291.14

>  <LogP>  (11) 
3.44

>  <PSA>  (11) 
37.3

>  <SA_Score>  (11) 
2.98

>  <HBD>  (11) 
1

>  <HBA>  (11) 
1

>  <Lip_Violations>  (11) 
0

>  <SMILES>  (11) 
C#CC=CC=CCc1ccc(Br)cc1C(=O)O

$$$$
Candidata_012
     RDKit          3D

 14 14  0  0  0  0  0  0  0  0999 V2000
    3.0892   -0.8249    2.4200 C   0  0  0  0  0  0  0  0  0  0  0  0
    2.7748   -0.9918    0.9226 C   0  0  0  0  0  0  0  0  0  0  0  0
    2.4890   -1.1591   -0.4597 C   0  0  0  0  0  0  0  0  0  0  0  0
    1.2794   -0.9762   -1.0116 C   0  0  0  0  0  0  0  0  0  0  0  0
    0.0643   -0.5674   -0.2899 C   0  0  0  0  0  0  0  0  0  0  0  0
   -0.5375   -1.5092    0.5635 C   0  0  0  0  0  0  0  0  0  0  0  0
   -1.6861   -1.1867    1.2882 C   0  0  0  0  0  0  0  0  0  0  0  0
   -2.2463    0.0798    1.1624 C   0  0  0  0  0  0  0  0  0  0  0  0
   -3.8040    0.5159    2.1407 Br  0  0  0  0  0  0  0  0  0  0  0  0
   -1.6719    1.0277    0.3178 C   0  0  0  0  0  0  0  0  0  0  0  0
   -0.5137    0.7140   -0.4161 C   0  0  0  0  0  0  0  0  0  0  0  0
    0.0747    1.7411   -1.3234 C   0  0  0  0  0  0  0  0  0  0  0  0
    0.8881    1.5628   -2.2099 O   0  0  0  0  0  0  0  0  0  0  0  0
   -0.3910    2.9777   -1.0645 O   0  0  0  0  0  0  0  0  0  0  0  0
  1  2  3  0
  2  3  1  0
  3  4  2  3
  4  5  1  0
  5  6  1  0
  6  7  2  0
  7  8  1  0
  8  9  1  0
  8 10  2  0
 10 11  1  0
 11 12  1  0
 12 13  2  0
 12 14  1  0
 11  5  2  0
M  CHG  1   1   1
M  END
>  <Rank>  (12) 
12

>  <Score>  (12) 
0.7470

>  <Pharma_Score>  (12) 
1.0000

>  <QED>  (12) 
0.6470

>  <MW>  (12) 
250.07

>  <LogP>  (12) 
2.75

>  <PSA>  (12) 
37.3

>  <SA_Score>  (12) 
3.23

>  <HBD>  (12) 
1

>  <HBA>  (12) 
1

>  <Lip_Violations>  (12) 
0

>  <SMILES>  (12) 
[C+]#CC=Cc1ccc(Br)cc1C(=O)O

$$$$
Candidata_013
     RDKit          3D

 18 19  0  0  0  0  0  0  0  0999 V2000
   -4.7095   -0.3556    1.2178 O   0  0  0  0  0  0  0  0  0  0  0  0
   -4.2623    0.5659    0.5564 C   0  0  0  0  0  0  0  0  0  0  0  0
   -5.0657    1.5992    0.2184 O   0  0  0  0  0  0  0  0  0  0  0  0
   -2.8711    0.7368   -0.0038 C   0  0  0  0  0  0  0  0  0  0  0  0
   -1.6736   -0.4940    0.6290 S   0  0  0  0  0  4  0  0  0  0  0  0
   -2.2609   -1.8954   -0.3269 C   0  0  0  0  0  0  0  0  0  0  0  0
   -1.6868   -2.3465   -1.5077 C   0  0  0  0  0  0  0  0  0  0  0  0
   -2.4724   -3.8561   -2.3599 Br  0  0  0  0  0  0  0  0  0  0  0  0
   -0.5758   -1.7622   -2.1143 C   0  0  0  0  0  0  0  0  0  0  0  0
    0.0848   -0.6495   -1.5837 C   0  0  0  0  0  0  0  0  0  0  0  0
   -0.2726    0.0144   -0.4014 C   0  0  0  0  0  0  0  0  0  0  0  0
    0.5549    1.1907    0.0793 C   0  0  0  0  0  0  0  0  0  0  0  0
    1.9589    0.8244    0.5033 C   0  0  0  0  0  0  0  0  0  0  0  0
    2.1736   -0.0082    1.6116 C   0  0  0  0  0  0  0  0  0  0  0  0
    3.4695   -0.3445    2.0054 C   0  0  0  0  0  0  0  0  0  0  0  0
    4.5640    0.1498    1.2990 C   0  0  0  0  0  0  0  0  0  0  0  0
    4.3640    0.9809    0.1984 C   0  0  0  0  0  0  0  0  0  0  0  0
    3.0684    1.3180   -0.1980 C   0  0  0  0  0  0  0  0  0  0  0  0
  1  2  2  0
  2  3  1  0
  2  4  1  0
  4  5  1  0
  5  6  2  0
  6  7  1  0
  7  8  1  0
  7  9  2  0
  9 10  1  0
 10 11  2  0
 11 12  1  0
 12 13  1  0
 13 14  2  0
 14 15  1  0
 15 16  2  0
 16 17  1  0
 17 18  2  0
 11  5  1  0
 18 13  1  0
M  CHG  1   5  -1
M  RAD  1   5   2
M  END
>  <Rank>  (13) 
13

>  <Score>  (13) 
0.7220

>  <Pharma_Score>  (13) 
1.0000

>  <QED>  (13) 
0.6830

>  <MW>  (13) 
325.23

>  <LogP>  (13) 
2.91

>  <PSA>  (13) 
37.3

>  <SA_Score>  (13) 
4.18

>  <HBD>  (13) 
1

>  <HBA>  (13) 
2

>  <Lip_Violations>  (13) 
0

>  <SMILES>  (13) 
O=C(O)C[S-]1=CC(Br)=CC=C1Cc1ccccc1

$$$$
Candidata_015
     RDKit          3D

  6  5  0  0  0  0  0  0  0  0999 V2000
    0.8067    1.5415   -0.1627 O   0  0  0  0  0  0  0  0  0  0  0  0
    0.8435    0.4004    0.2473 C   0  0  0  0  0  0  0  0  0  0  0  0
    2.0037   -0.1864    0.5912 O   0  0  0  0  0  0  0  0  0  0  0  0
   -0.2590   -0.5477    0.4558 C   0  0  0  0  0  0  0  0  0  0  0  0
   -1.5494   -0.3019    0.2180 C   0  0  0  0  0  0  0  0  0  0  0  0
   -2.2300    1.1489   -0.3772 Cl  0  0  0  0  0  0  0  0  0  0  0  0
  1  2  2  0
  2  3  1  0
  2  4  1  0
  4  5  2  3
  5  6  1  0
M  END
>  <Rank>  (14) 
15

>  <Score>  (14) 
0.7060

>  <Pharma_Score>  (14) 
1.0000

>  <QED>  (14) 
0.5030

>  <MW>  (14) 
106.51

>  <LogP>  (14) 
0.82

>  <PSA>  (14) 
37.3

>  <SA_Score>  (14) 
2.99

>  <HBD>  (14) 
1

>  <HBA>  (14) 
1

>  <Lip_Violations>  (14) 
0

>  <SMILES>  (14) 
O=C(O)C=CCl

$$$$
Candidata_016
     RDKit          3D

 24 25  0  0  0  0  0  0  0  0999 V2000
    7.2699    0.5431   -2.6811 O   0  0  0  0  0  0  0  0  0  0  0  0
    6.1842    0.7577   -2.1731 C   0  0  0  0  0  0  0  0  0  0  0  0
    5.6994    2.0022   -2.0502 O   0  0  0  0  0  0  0  0  0  0  0  0
    5.2960   -0.2878   -1.6447 C   0  0  0  0  0  0  0  0  0  0  0  0
    4.1004   -0.0345   -1.0864 C   0  0  0  0  0  0  0  0  0  0  0  0
    3.1512   -0.9995   -0.5362 C   0  0  0  0  0  0  0  0  0  0  0  0
    3.5799   -2.8287   -0.6004 Br  0  0  0  0  0  0  0  0  0  0  0  0
    1.9936   -0.5556   -0.0074 C   0  0  0  0  0  0  0  0  0  0  0  0
    0.8823   -1.3587    0.6082 C   0  0  0  0  0  0  0  0  0  0  0  0
    0.5908   -0.8133    1.8898 O   0  0  0  0  0  0  0  0  0  0  0  0
   -0.3636   -1.3949   -0.2663 C   0  0  0  0  0  0  0  0  0  0  0  0
   -0.5750   -2.5813   -1.0079 C   0  0  0  0  0  0  0  0  0  0  0  0
   -1.6669   -2.7198   -1.8628 C   0  0  0  0  0  0  0  0  0  0  0  0
   -1.9066   -4.3269   -2.8285 Br  0  0  0  0  0  0  0  0  0  0  0  0
   -2.5746   -1.6833   -2.0115 C   0  0  0  0  0  0  0  0  0  0  0  0
   -2.3828   -0.5008   -1.2992 C   0  0  0  0  0  0  0  0  0  0  0  0
   -1.2881   -0.3322   -0.4205 C   0  0  0  0  0  0  0  0  0  0  0  0
   -1.1747    1.0102    0.2843 C   0  0  0  0  0  0  0  0  0  0  0  0
   -2.3316    1.3348    1.2071 C   0  0  0  0  0  0  0  0  0  0  0  0
   -3.1573    2.4404    0.9553 C   0  0  0  0  0  0  0  0  0  0  0  0
   -4.2185    2.7423    1.8108 C   0  0  0  0  0  0  0  0  0  0  0  0
   -4.4636    1.9460    2.9278 C   0  0  0  0  0  0  0  0  0  0  0  0
   -3.6471    0.8484    3.1918 C   0  0  0  0  0  0  0  0  0  0  0  0
   -2.5855    0.5454    2.3379 C   0  0  0  0  0  0  0  0  0  0  0  0
  1  2  2  0
  2  3  1  0
  2  4  1  0
  4  5  2  3
  5  6  1  0
  6  7  1  0
  6  8  2  3
  8  9  1  0
  9 10  1  0
  9 11  1  0
 11 12  1  0
 12 13  2  0
 13 14  1  0
 13 15  1  0
 15 16  2  0
 16 17  1  0
 17 18  1  0
 18 19  1  0
 19 20  2  0
 20 21  1  0
 21 22  2  0
 22 23  1  0
 23 24  2  0
 17 11  2  0
 24 19  1  0
M  END
>  <Rank>  (15) 
16

>  <Score>  (15) 
0.6910

>  <Pharma_Score>  (15) 
1.0000

>  <QED>  (15) 
0.4800

>  <MW>  (15) 
452.14

>  <LogP>  (15) 
4.99

>  <PSA>  (15) 
57.5

>  <SA_Score>  (15) 
3.17

>  <HBD>  (15) 
2

>  <HBA>  (15) 
2

>  <Lip_Violations>  (15) 
0

>  <SMILES>  (15) 
O=C(O)C=CC(Br)=CC(O)c1cc(Br)ccc1Cc1ccccc1

$$$$
Candidata_017
     RDKit          3D

 12 11  0  0  0  0  0  0  0  0999 V2000
   -4.9895   -0.3504   -0.3920 C   0  0  0  0  0  0  0  0  0  0  0  0
   -3.6808   -0.5889    0.2884 C   0  0  0  0  0  0  0  0  0  0  0  0
   -2.5576    0.0865    0.0033 C   0  0  0  0  0  0  0  0  0  0  0  0
   -1.3031   -0.1618    0.6763 C   0  0  0  0  0  0  0  0  0  0  0  0
   -0.1776    0.5178    0.3972 C   0  0  0  0  0  0  0  0  0  0  0  0
    1.1766    0.3466    1.0359 C   0  0  0  0  0  0  0  0  0  0  0  0
    1.2211   -0.7214    2.0249 N   0  0  0  0  0  0  0  0  0  0  0  0
    2.2194    0.0791   -0.0108 C   0  0  0  0  0  0  0  0  0  0  0  0
    3.2621    0.8912   -0.2530 C   0  0  0  0  0  0  0  0  0  0  0  0
    4.2812    0.6420   -1.2816 C   0  0  0  0  0  0  0  0  0  0  0  0
    5.2202    1.3830   -1.5095 O   0  0  0  0  0  0  0  0  0  0  0  0
    4.0956   -0.4954   -1.9669 O   0  0  0  0  0  0  0  0  0  0  0  0
  1  2  1  0
  2  3  2  3
  3  4  1  0
  4  5  2  3
  5  6  1  0
  6  7  1  0
  6  8  1  0
  8  9  2  3
  9 10  1  0
 10 11  2  0
 10 12  1  0
M  END
>  <Rank>  (16) 
17

>  <Score>  (16) 
0.6580

>  <Pharma_Score>  (16) 
1.0000

>  <QED>  (16) 
0.4860

>  <MW>  (16) 
167.21

>  <LogP>  (16) 
1.09

>  <PSA>  (16) 
63.3

>  <SA_Score>  (16) 
4.05

>  <HBD>  (16) 
2

>  <HBA>  (16) 
2

>  <Lip_Violations>  (16) 
0

>  <SMILES>  (16) 
CC=CC=CC(N)C=CC(=O)O

$$$$
Candidata_018
     RDKit          3D

 17 18  0  0  0  0  0  0  0  0999 V2000
   -3.4236    2.1940    1.0263 O   0  0  0  0  0  0  0  0  0  0  0  0
   -2.6499    1.7722    1.8708 C   0  0  0  0  0  0  0  0  0  0  0  0
   -1.7985    0.6838    1.7874 O   0  0  0  0  0  0  0  0  0  0  0  0
   -1.9073    0.0010    0.5710 C   0  0  0  0  0  0  0  0  0  0  0  0
   -2.9153   -0.9586    0.4445 C   0  0  0  0  0  0  0  0  0  0  0  0
   -3.0123   -1.6858   -0.7376 C   0  0  0  0  0  0  0  0  0  0  0  0
   -4.3753   -2.9813   -0.9327 Br  0  0  0  0  0  0  0  0  0  0  0  0
   -2.1081   -1.4724   -1.7764 C   0  0  0  0  0  0  0  0  0  0  0  0
   -1.0921   -0.5232   -1.6312 C   0  0  0  0  0  0  0  0  0  0  0  0
   -0.9725    0.2278   -0.4502 C   0  0  0  0  0  0  0  0  0  0  0  0
    0.1497    1.2307   -0.3128 C   0  0  0  0  0  0  0  0  0  0  0  0
    1.5042    0.6004   -0.0797 C   0  0  0  0  0  0  0  0  0  0  0  0
    2.4773    0.6077   -1.0893 C   0  0  0  0  0  0  0  0  0  0  0  0
    3.7265    0.0230   -0.8738 C   0  0  0  0  0  0  0  0  0  0  0  0
    4.0158   -0.5752    0.3510 C   0  0  0  0  0  0  0  0  0  0  0  0
    3.0567   -0.5900    1.3616 C   0  0  0  0  0  0  0  0  0  0  0  0
    1.8073   -0.0054    1.1485 C   0  0  0  0  0  0  0  0  0  0  0  0
  1  2  2  0
  2  3  1  0
  3  4  1  0
  4  5  1  0
  5  6  2  0
  6  7  1  0
  6  8  1  0
  8  9  2  0
  9 10  1  0
 10 11  1  0
 11 12  1  0
 12 13  2  0
 13 14  1  0
 14 15  2  0
 15 16  1  0
 16 17  2  0
 10  4  2  0
 17 12  1  0
M  END
>  <Rank>  (17) 
18

>  <Score>  (17) 
0.6240

>  <Pharma_Score>  (17) 
0.5000

>  <QED>  (17) 
0.8050

>  <MW>  (17) 
291.14

>  <LogP>  (17) 
3.58

>  <PSA>  (17) 
26.3

>  <SA_Score>  (17) 
2.06

>  <HBD>  (17) 
0

>  <HBA>  (17) 
2

>  <Lip_Violations>  (17) 
0

>  <SMILES>  (17) 
O=COc1cc(Br)ccc1Cc1ccccc1

$$$$
Candidata_019
     RDKit          3D

 18 19  0  0  0  0  0  0  0  0999 V2000
   -2.2638   -0.6003    3.2436 O   0  0  0  0  0  0  0  0  0  0  0  0
   -2.6240   -0.0715    2.1950 C   0  0  0  0  0  0  0  0  0  0  0  0
   -1.7718    0.8766    1.3904 C   0  0  0  0  0  0  0  0  0  0  0  0
   -1.9464    0.5009    0.0218 O   0  0  0  0  0  0  0  0  0  0  0  0
   -1.0859    1.1789   -0.8035 C   0  0  0  0  0  0  0  0  0  0  0  0
   -1.1880    2.5657   -0.9459 C   0  0  0  0  0  0  0  0  0  0  0  0
   -0.3352    3.2319   -1.8229 C   0  0  0  0  0  0  0  0  0  0  0  0
   -0.4627    5.1091   -2.0091 Br  0  0  0  0  0  0  0  0  0  0  0  0
    0.6046    2.5269   -2.5697 C   0  0  0  0  0  0  0  0  0  0  0  0
    0.6863    1.1387   -2.4448 C   0  0  0  0  0  0  0  0  0  0  0  0
   -0.1640    0.4448   -1.5668 C   0  0  0  0  0  0  0  0  0  0  0  0
   -0.0468   -1.0601   -1.4466 C   0  0  0  0  0  0  0  0  0  0  0  0
    0.7210   -1.5211   -0.2280 C   0  0  0  0  0  0  0  0  0  0  0  0
    2.0961   -1.2714   -0.1067 C   0  0  0  0  0  0  0  0  0  0  0  0
    2.7956   -1.6853    1.0284 C   0  0  0  0  0  0  0  0  0  0  0  0
    2.1297   -2.3527    2.0540 C   0  0  0  0  0  0  0  0  0  0  0  0
    0.7658   -2.6125    1.9429 C   0  0  0  0  0  0  0  0  0  0  0  0
    0.0665   -2.2054    0.8058 C   0  0  0  0  0  0  0  0  0  0  0  0
  1  2  2  0
  2  3  1  0
  3  4  1  0
  4  5  1  0
  5  6  1  0
  6  7  2  0
  7  8  1  0
  7  9  1  0
  9 10  2  0
 10 11  1  0
 11 12  1  0
 12 13  1  0
 13 14  2  0
 14 15  1  0
 15 16  2  0
 16 17  1  0
 17 18  2  0
 11  5  2  0
 18 13  1  0
M  END
>  <Rank>  (18) 
19

>  <Score>  (18) 
0.6210

>  <Pharma_Score>  (18) 
0.5000

>  <QED>  (18) 
0.7890

>  <MW>  (18) 
305.17

>  <LogP>  (18) 
3.62

>  <PSA>  (18) 
26.3

>  <SA_Score>  (18) 
2.01

>  <HBD>  (18) 
0

>  <HBA>  (18) 
2

>  <Lip_Violations>  (18) 
0

>  <SMILES>  (18) 
O=CCOc1cc(Br)ccc1Cc1ccccc1

$$$$
Candidata_020
     RDKit          3D

 14 13  0  0  0  0  0  0  0  0999 V2000
   -2.4965    3.0241   -0.4670 C   0  0  0  0  0  0  0  0  0  0  0  0
   -2.7177    1.7129   -0.6162 C   0  0  0  0  0  0  0  0  0  0  0  0
   -2.0539    0.7088    0.1822 C   0  0  0  0  0  0  0  0  0  0  0  0
   -2.2742   -0.6072    0.0314 C   0  0  0  0  0  0  0  0  0  0  0  0
   -1.6293   -1.6545    0.8214 C   0  0  0  0  0  0  0  0  0  0  0  0
   -2.3601   -2.7460    1.1133 C   0  0  0  0  0  0  0  0  0  0  0  0
   -0.2559   -1.6129    1.3201 C   0  0  0  0  0  0  0  0  0  0  0  0
    0.7731   -1.0410    0.6742 C   0  0  0  0  0  0  0  0  0  0  0  0
    2.1189   -1.0222    1.1941 C   0  0  0  0  0  0  0  0  0  0  0  0
    3.0867   -0.4424    0.5464 C   0  0  0  0  0  0  0  0  0  0  0  0
    4.0538    0.1382   -0.1006 C   0  0  0  0  0  0  0  0  0  0  0  0
    3.8484    1.0085   -1.2602 C   0  0  0  0  0  0  0  0  0  0  0  0
    4.7472    1.5624   -1.8691 O   0  0  0  0  0  0  0  0  0  0  0  0
    2.5628    1.1569   -1.6147 O   0  0  0  0  0  0  0  0  0  0  0  0
  1  2  2  0
  2  3  1  0
  3  4  2  3
  4  5  1  0
  5  6  2  0
  5  7  1  0
  7  8  2  3
  8  9  1  0
  9 10  2  0
 10 11  2  0
 11 12  1  0
 12 13  2  0
 12 14  1  0
M  END
>  <Rank>  (19) 
20

>  <Score>  (19) 
0.6180

>  <Pharma_Score>  (19) 
1.0000

>  <QED>  (19) 
0.4090

>  <MW>  (19) 
188.23

>  <LogP>  (19) 
2.64

>  <PSA>  (19) 
37.3

>  <SA_Score>  (19) 
4.37

>  <HBD>  (19) 
1

>  <HBA>  (19) 
1

>  <Lip_Violations>  (19) 
0

>  <SMILES>  (19) 
C=CC=CC(=C)C=CC=C=CC(=O)O

$$$$
Candidata_021
     RDKit          3D

  8  7  0  0  0  0  0  0  0  0999 V2000
   -2.5707    1.0075    1.0299 N   0  0  0  0  0  1  0  0  0  0  0  0
   -1.9184    0.6799   -0.2285 C   0  0  0  0  0  0  0  0  0  0  0  0
   -2.8630   -0.8165   -1.0368 Br  0  0  0  0  0  0  0  0  0  0  0  0
   -0.4511    0.4419   -0.0288 C   0  0  0  0  0  0  0  0  0  0  0  0
    0.2869   -0.6527   -0.2865 C   0  0  0  0  0  0  0  0  0  0  0  0
    1.7358   -0.7404   -0.0431 C   0  0  0  0  0  0  0  0  0  0  0  0
    2.4093   -1.7317   -0.2564 O   0  0  0  0  0  0  0  0  0  0  0  0
    2.2749    0.3889    0.4391 O   0  0  0  0  0  0  0  0  0  0  0  0
  1  2  1  0
  2  3  1  0
  2  4  1  0
  4  5  2  3
  5  6  1  0
  6  7  2  0
  6  8  1  0
M  CHG  1   1  -1
M  RAD  1   1   2
M  END
>  <Rank>  (20) 
21

>  <Score>  (20) 
0.6150

>  <Pharma_Score>  (20) 
1.0000

>  <QED>  (20) 
0.3920

>  <MW>  (20) 
177.98

>  <LogP>  (20) 
1.19

>  <PSA>  (20) 
59.6

>  <SA_Score>  (20) 
4.30

>  <HBD>  (20) 
1

>  <HBA>  (20) 
1

>  <Lip_Violations>  (20) 
0

>  <SMILES>  (20) 
[N-]C(Br)C=CC(=O)O

$$$$
Candidata_022
     RDKit          3D

 17 17  0  0  0  0  0  0  0  0999 V2000
    6.9384    0.2479   -0.3617 O   0  0  0  0  0  0  0  0  0  0  0  0
    5.8683    0.6175   -0.0408 C   0  0  0  0  0  0  0  0  0  0  0  0
    4.6835    1.0093    0.3320 C   0  0  0  0  0  0  0  0  0  0  0  0
    4.2592    2.2466   -0.1051 O   0  0  0  0  0  0  0  0  0  0  0  0
    3.8688    0.2837    1.2796 C   0  0  0  0  0  0  0  0  0  0  0  0
    2.5244    0.3179    1.3248 C   0  0  0  0  0  0  0  0  0  0  0  0
    1.6659   -0.4045    2.2584 C   0  0  0  0  0  0  0  0  0  0  0  0
    2.3900   -0.8712    3.9423 Br  0  0  0  0  0  0  0  0  0  0  0  0
    0.3673   -0.6904    2.0316 C   0  0  0  0  0  0  0  0  0  0  0  0
   -0.4010   -0.4376    0.8269 C   0  0  0  0  0  0  0  0  0  0  0  0
   -1.7154   -0.6996    0.7416 C   0  0  0  0  0  0  0  0  0  0  0  0
   -2.5163   -0.4566   -0.4664 C   0  0  0  0  0  0  0  0  0  0  0  0
   -2.0490   -0.7783   -1.7476 C   0  0  0  0  0  0  0  0  0  0  0  0
   -2.8499   -0.5583   -2.8712 C   0  0  0  0  0  0  0  0  0  0  0  0
   -4.1284   -0.0244   -2.7239 C   0  0  0  0  0  0  0  0  0  0  0  0
   -4.6097    0.2843   -1.4534 C   0  0  0  0  0  0  0  0  0  0  0  0
   -3.8096    0.0637   -0.3295 C   0  0  0  0  0  0  0  0  0  0  0  0
  1  2  2  0
  2  3  2  0
  3  4  1  0
  3  5  1  0
  5  6  2  3
  6  7  1  0
  7  8  1  0
  7  9  2  3
  9 10  1  0
 10 11  2  3
 11 12  1  0
 12 13  2  0
 13 14  1  0
 14 15  2  0
 15 16  1  0
 16 17  2  0
 17 12  1  0
M  END
>  <Rank>  (21) 
22

>  <Score>  (21) 
0.5880

>  <Pharma_Score>  (21) 
0.7500

>  <QED>  (21) 
0.5200

>  <MW>  (21) 
291.14

>  <LogP>  (21) 
3.81

>  <PSA>  (21) 
37.3

>  <SA_Score>  (21) 
3.28

>  <HBD>  (21) 
1

>  <HBA>  (21) 
2

>  <Lip_Violations>  (21) 
0

>  <SMILES>  (21) 
O=C=C(O)C=CC(Br)=CC=Cc1ccccc1

$$$$
Candidata_023
     RDKit          3D

  4  3  0  0  0  0  0  0  0  0999 V2000
   -0.0204    1.3225   -0.2173 O   0  0  0  0  0  0  0  0  0  0  0  0
    0.2152    0.1408   -0.0288 C   0  0  0  0  0  0  0  0  0  0  0  0
   -0.7782   -0.7511    0.1440 O   0  0  0  0  0  0  0  0  0  0  0  0
    2.1727   -0.5051    0.0265 I   0  0  0  0  0  0  0  0  0  0  0  0
  1  2  2  0
  2  3  1  0
  2  4  1  0
M  END
>  <Rank>  (22) 
23

>  <Score>  (22) 
0.5800

>  <Pharma_Score>  (22) 
0.7500

>  <QED>  (22) 
0.4380

>  <MW>  (22) 
171.92

>  <LogP>  (22) 
1.10

>  <PSA>  (22) 
37.3

>  <SA_Score>  (22) 
2.76

>  <HBD>  (22) 
1

>  <HBA>  (22) 
1

>  <Lip_Violations>  (22) 
0

>  <SMILES>  (22) 
O=C(O)I

$$$$
Candidata_024
     RDKit          3D

 15 16  0  0  0  0  0  0  0  0999 V2000
    2.5116    0.6856   -2.8428 O   0  0  0  0  0  0  0  0  0  0  0  0
    2.1096    0.6993   -1.6760 C   0  0  0  0  0  0  0  0  0  0  0  0
    3.0641    0.8910   -0.5213 C   0  0  0  0  0  0  0  0  0  0  0  0
    3.3498   -0.4638    0.0454 C   0  0  0  0  0  0  0  0  0  0  0  0
    5.1528   -0.9739    0.0287 Br  0  0  0  0  0  0  0  0  0  0  0  0
    2.4080   -1.2894    0.5285 C   0  0  0  0  0  0  0  0  0  0  0  0
    0.9969   -0.9969    0.6487 C   0  0  0  0  0  0  0  0  0  0  0  0
    0.2329   -0.2149   -0.1386 C   0  0  0  0  0  0  0  0  0  0  0  0
   -1.2025   -0.1090    0.2120 C   0  0  0  0  0  0  0  0  0  0  0  0
   -2.1843   -0.6058   -0.6551 C   0  0  0  0  0  0  0  0  0  0  0  0
   -3.5376   -0.4995   -0.3265 C   0  0  0  0  0  0  0  0  0  0  0  0
   -3.9207    0.1040    0.8700 C   0  0  0  0  0  0  0  0  0  0  0  0
   -2.9523    0.6011    1.7402 C   0  0  0  0  0  0  0  0  0  0  0  0
   -1.5987    0.4954    1.4138 C   0  0  0  0  0  0  0  0  0  0  0  0
    0.6270    0.5823   -1.3602 C   0  0  0  0  0  0  0  0  0  0  0  0
  1  2  2  0
  2  3  1  0
  3  4  1  0
  4  5  1  0
  4  6  2  0
  6  7  1  0
  7  8  2  0
  8  9  1  0
  9 10  2  0
 10 11  1  0
 11 12  2  0
 12 13  1  0
 13 14  2  0
  8 15  1  0
 15  2  1  0
 14  9  1  0
M  END
>  <Rank>  (23) 
24

>  <Score>  (23) 
0.5790

>  <Pharma_Score>  (23) 
0.5000

>  <QED>  (23) 
0.7540

>  <MW>  (23) 
263.13

>  <LogP>  (23) 
3.71

>  <PSA>  (23) 
17.1

>  <SA_Score>  (23) 
2.75

>  <HBD>  (23) 
0

>  <HBA>  (23) 
1

>  <Lip_Violations>  (23) 
0

>  <SMILES>  (23) 
O=C1CC(Br)=CC=C(c2ccccc2)C1

$$$$
Candidata_025
     RDKit          3D

 18 19  0  0  0  0  0  0  0  0999 V2000
   -0.9486    2.5738   -1.4994 C   0  0  0  0  0  0  0  0  0  0  0  0
   -1.0602    1.0819   -1.3945 C   0  0  0  0  0  0  0  0  0  0  0  0
   -0.7779    0.3065   -2.2986 O   0  0  0  0  0  0  0  0  0  0  0  0
   -1.5708    0.7576   -0.1399 O   0  0  0  0  0  0  0  0  0  0  0  0
   -1.6654   -0.6192    0.1039 C   0  0  0  0  0  0  0  0  0  0  0  0
   -2.6295   -1.3693   -0.5746 C   0  0  0  0  0  0  0  0  0  0  0  0
   -2.7412   -2.7293   -0.3045 C   0  0  0  0  0  0  0  0  0  0  0  0
   -4.0280   -3.7662   -1.2228 Br  0  0  0  0  0  0  0  0  0  0  0  0
   -1.9154   -3.3337    0.6421 C   0  0  0  0  0  0  0  0  0  0  0  0
   -0.9705   -2.5692    1.3333 C   0  0  0  0  0  0  0  0  0  0  0  0
   -0.8345   -1.1951    1.0786 C   0  0  0  0  0  0  0  0  0  0  0  0
    0.1664   -0.3808    1.8708 C   0  0  0  0  0  0  0  0  0  0  0  0
    1.2589    0.2940    1.0688 C   0  0  0  0  0  0  0  0  0  0  0  0
    1.6409    1.6078    1.3820 C   0  0  0  0  0  0  0  0  0  0  0  0
    2.6558    2.2445    0.6654 C   0  0  0  0  0  0  0  0  0  0  0  0
    3.3077    1.5731   -0.3660 C   0  0  0  0  0  0  0  0  0  0  0  0
    2.9515    0.2625   -0.6754 C   0  0  0  0  0  0  0  0  0  0  0  0
    1.9401   -0.3775    0.0433 C   0  0  0  0  0  0  0  0  0  0  0  0
  1  2  1  0
  2  3  2  0
  2  4  1  0
  4  5  1  0
  5  6  1  0
  6  7  2  0
  7  8  1  0
  7  9  1  0
  9 10  2  0
 10 11  1  0
 11 12  1  0
 12 13  1  0
 13 14  2  0
 14 15  1  0
 15 16  2  0
 16 17  1  0
 17 18  2  0
 11  5  2  0
 18 13  1  0
M  END
>  <Rank>  (24) 
25

>  <Score>  (24) 
0.5750

>  <Pharma_Score>  (24) 
0.5000

>  <QED>  (24) 
0.6330

>  <MW>  (24) 
305.17

>  <LogP>  (24) 
3.97

>  <PSA>  (24) 
26.3

>  <SA_Score>  (24) 
1.79

>  <HBD>  (24) 
0

>  <HBA>  (24) 
2

>  <Lip_Violations>  (24) 
0

>  <SMILES>  (24) 
CC(=O)Oc1cc(Br)ccc1Cc1ccccc1

$$$$
Candidata_026
     RDKit          3D

 13 13  0  0  0  0  0  0  0  0999 V2000
   -0.7999    2.4323   -0.1073 C   0  0  0  0  0  0  0  0  0  0  0  0
   -0.7867    1.3631   -1.1893 C   0  0  0  0  0  0  0  0  0  0  0  0
   -0.9712   -0.0203   -0.6187 C   0  0  0  0  0  0  0  0  0  0  0  0
   -2.2648   -0.5365   -0.4507 C   0  0  0  0  0  0  0  0  0  0  0  0
   -2.4590   -1.8156    0.0790 C   0  0  0  0  0  0  0  0  0  0  0  0
   -1.3595   -2.5908    0.4452 C   0  0  0  0  0  0  0  0  0  0  0  0
   -1.6286   -4.3255    1.1473 Br  0  0  0  0  0  0  0  0  0  0  0  0
   -0.0665   -2.0998    0.2948 C   0  0  0  0  0  0  0  0  0  0  0  0
    0.1141   -0.8122   -0.2160 C   0  0  0  0  0  0  0  0  0  0  0  0
    1.4173   -0.3357   -0.4069 O   0  0  0  0  0  0  0  0  0  0  0  0
    2.0655    0.0306    0.7673 C   0  0  0  0  0  0  0  0  0  0  0  0
    3.4400    0.5220    0.4233 C   0  0  0  0  0  0  0  0  0  0  0  0
    1.6171   -0.0206    1.9042 O   0  0  0  0  0  0  0  0  0  0  0  0
  1  2  1  0
  2  3  1  0
  3  4  1  0
  4  5  2  0
  5  6  1  0
  6  7  1  0
  6  8  2  0
  8  9  1  0
  9 10  1  0
 10 11  1  0
 11 12  1  0
 11 13  2  0
  9  3  2  0
M  END
>  <Rank>  (25) 
26

>  <Score>  (25) 
0.5540

>  <Pharma_Score>  (25) 
0.5000

>  <QED>  (25) 
0.5890

>  <MW>  (25) 
243.10

>  <LogP>  (25) 
2.94

>  <PSA>  (25) 
26.3

>  <SA_Score>  (25) 
1.94

>  <HBD>  (25) 
0

>  <HBA>  (25) 
2

>  <Lip_Violations>  (25) 
0

>  <SMILES>  (25) 
CCc1ccc(Br)cc1OC(C)=O

$$$$
Candidata_027
     RDKit          3D

  8  8  0  0  0  0  0  0  0  0999 V2000
    2.9695   -1.1217   -0.1890 O   0  0  0  0  0  0  0  0  0  0  0  0
    2.3435   -0.0692   -0.1689 C   0  0  0  0  0  0  0  0  0  0  0  0
    0.8714   -0.0291   -0.0627 C   0  0  0  0  0  0  0  0  0  0  0  0
    0.1399   -1.2172    0.0193 C   0  0  0  0  0  0  0  0  0  0  0  0
   -1.2507   -1.1675    0.1193 C   0  0  0  0  0  0  0  0  0  0  0  0
   -1.9052    0.0651    0.1371 C   0  0  0  0  0  0  0  0  0  0  0  0
   -1.1725    1.2506    0.0551 C   0  0  0  0  0  0  0  0  0  0  0  0
    0.2192    1.2072   -0.0452 C   0  0  0  0  0  0  0  0  0  0  0  0
  1  2  2  0
  2  3  1  0
  3  4  2  0
  4  5  1  0
  5  6  2  0
  6  7  1  0
  7  8  2  0
  8  3  1  0
M  END
>  <Rank>  (26) 
27

>  <Score>  (26) 
0.5410

>  <Pharma_Score>  (26) 
0.5000

>  <QED>  (26) 
0.4960

>  <MW>  (26) 
106.12

>  <LogP>  (26) 
1.50

>  <PSA>  (26) 
17.1

>  <SA_Score>  (26) 
1.44

>  <HBD>  (26) 
0

>  <HBA>  (26) 
1

>  <Lip_Violations>  (26) 
0

>  <SMILES>  (26) 
O=Cc1ccccc1

$$$$
Candidata_028
     RDKit          3D

  9  9  0  0  0  0  0  0  0  0999 V2000
   -1.3229   -2.3899    0.7605 O   0  0  0  0  0  0  0  0  0  0  0  0
   -0.6244   -1.5301    0.2275 C   0  0  0  0  0  0  0  0  0  0  0  0
   -1.2217   -0.3516   -0.5043 C   0  0  0  0  0  0  0  0  0  0  0  0
   -0.9245    0.9226    0.2222 C   0  0  0  0  0  0  0  0  0  0  0  0
   -2.4078    1.8785    0.8404 Br  0  0  0  0  0  0  0  0  0  0  0  0
    0.3236    1.3750    0.4120 C   0  0  0  0  0  0  0  0  0  0  0  0
    1.5015    0.6917   -0.0626 C   0  0  0  0  0  0  0  0  0  0  0  0
    1.6585   -0.6361   -0.1411 C   0  0  0  0  0  0  0  0  0  0  0  0
    0.7384   -1.6416    0.2087 O   0  0  0  0  0  0  0  0  0  0  0  0
  1  2  2  0
  2  3  1  0
  3  4  1  0
  4  5  1  0
  4  6  2  0
  6  7  1  0
  7  8  2  0
  8  9  1  0
  9  2  1  0
M  END
>  <Rank>  (27) 
28

>  <Score>  (27) 
0.4570

>  <Pharma_Score>  (27) 
0.5000

>  <QED>  (27) 
0.5420

>  <MW>  (27) 
189.01

>  <LogP>  (27) 
1.73

>  <PSA>  (27) 
26.3

>  <SA_Score>  (27) 
3.95

>  <HBD>  (27) 
0

>  <HBA>  (27) 
2

>  <Lip_Violations>  (27) 
0

>  <SMILES>  (27) 
O=C1CC(Br)=CC=CO1

$$$$
Candidata_029
     RDKit          3D

  5  4  0  0  0  0  0  0  0  0999 V2000
   -1.8065    0.0297   -0.2821 C   0  0  0  0  0  0  0  0  0  0  0  0
   -0.6659    0.4002    0.3141 C   0  0  0  0  0  0  0  0  0  0  0  0
    0.5442   -0.4740    0.4399 C   0  0  0  0  0  0  0  0  0  0  0  0
    1.6756    0.1447   -0.3434 C   0  0  0  0  0  0  0  0  0  0  0  0
    2.6244    0.7261    0.1758 O   0  0  0  0  0  0  0  0  0  0  0  0
  1  2  2  0
  2  3  1  0
  3  4  1  0
  4  5  2  0
M  END
>  <Rank>  (28) 
29

>  <Score>  (28) 
0.4020

>  <Pharma_Score>  (28) 
0.5000

>  <QED>  (28) 
0.3460

>  <MW>  (28) 
70.09

>  <LogP>  (28) 
0.76

>  <PSA>  (28) 
17.1

>  <SA_Score>  (28) 
3.60

>  <HBD>  (28) 
0

>  <HBA>  (28) 
1

>  <Lip_Violations>  (28) 
0

>  <SMILES>  (28) 
C=CCC=O

$$$$
Candidata_030
     RDKit          3D

  9  9  0  0  0  0  0  0  0  0999 V2000
    2.4692   -1.4506   -0.2074 O   0  0  0  0  0  0  0  0  0  0  0  0
    1.3353   -0.9736   -0.1407 C   0  0  0  0  0  0  0  0  0  0  0  0
    1.2337    0.4991    0.0810 C   0  0  0  0  0  0  0  0  0  0  0  0
    0.1958    1.3491    0.2045 C   0  0  0  0  0  0  0  0  0  0  0  0
   -1.1902    0.9781    0.1420 C   0  0  0  0  0  0  0  0  0  0  0  0
   -2.5714    2.1724    0.3158 Br  0  0  0  0  0  0  0  0  0  0  0  0
   -1.4513   -0.2685   -0.0472 C   0  0  0  0  0  0  0  0  0  0  0  0
   -1.1302   -1.4974   -0.2312 C   0  0  0  0  0  0  0  0  0  0  0  0
    0.2453   -1.7966   -0.2700 O   0  0  0  0  0  0  0  0  0  0  0  0
  1  2  2  0
  2  3  1  0
  3  4  2  0
  4  5  1  0
  5  6  1  0
  5  7  2  0
  7  8  2  0
  8  9  1  0
  9  2  1  0
M  END
>  <Rank>  (29) 
30

>  <Score>  (29) 
0.3800

>  <Pharma_Score>  (29) 
0.5000

>  <QED>  (29) 
0.4240

>  <MW>  (29) 
186.99

>  <LogP>  (29) 
1.49

>  <PSA>  (29) 
26.3

>  <SA_Score>  (29) 
4.84

>  <HBD>  (29) 
0

>  <HBA>  (29) 
2

>  <Lip_Violations>  (29) 
0

>  <SMILES>  (29) 
O=C1C=CC(Br)=C=CO1

$$$$
Candidata_031
     RDKit          3D

  7  6  0  0  0  0  0  0  0  0999 V2000
   -2.1233   -0.3823   -0.0837 C   0  0  0  0  0  0  0  0  0  0  0  0
   -0.8911    0.4088    0.2315 C   0  0  0  0  0  0  0  0  0  0  0  0
   -0.8922    1.5159    0.7502 O   0  0  0  0  0  0  0  0  0  0  0  0
    0.2170   -0.2827   -0.1422 O   0  0  0  0  0  0  0  0  0  0  0  0
    1.4373    0.4108    0.1278 C   0  0  0  0  0  0  0  0  0  0  0  0
    2.5585   -0.4225   -0.3128 C   0  0  0  0  0  2  0  0  0  0  0  0
    4.0181   -1.5095   -0.8876 Br  0  0  0  0  0  0  0  0  0  0  0  0
  1  2  1  0
  2  3  2  0
  2  4  1  0
  4  5  1  0
  5  6  1  0
  6  7  1  0
M  CHG  1   6   1
M  RAD  1   6   2
M  END
>  <Rank>  (30) 
31

>  <Score>  (30) 
0.2850

>  <Pharma_Score>  (30) 
0.2500

>  <QED>  (30) 
0.4500

>  <MW>  (30) 
164.99

>  <LogP>  (30) 
0.98

>  <PSA>  (30) 
26.3

>  <SA_Score>  (30) 
4.62

>  <HBD>  (30) 
0

>  <HBA>  (30) 
2

>  <Lip_Violations>  (30) 
0

>  <SMILES>  (30) 
CC(=O)OC[C+]Br

$$$$
Candidata_032
     RDKit          3D

  2  1  0  0  0  0  0  0  0  0999 V2000
   -0.0123    0.0011    0.0000 C   0  0  0  0  0  0  0  0  0  0  0  0
    1.2071   -0.1124   -0.0009 O   0  0  0  0  0  0  0  0  0  0  0  0
  1  2  2  0
M  END
>  <Rank>  (31) 
32

>  <Score>  (31) 
0.2770

>  <Pharma_Score>  (31) 
0.2500

>  <QED>  (31) 
0.3610

>  <MW>  (31) 
30.03

>  <LogP>  (31) 
-0.18

>  <PSA>  (31) 
17.1

>  <SA_Score>  (31) 
4.04

>  <HBD>  (31) 
0

>  <HBA>  (31) 
1

>  <Lip_Violations>  (31) 
0

>  <SMILES>  (31) 
C=O

$$$$
