Q9Z_crystal.pdb
 OpenBabel06032615163D

 11 11  0  0  0  0  0  0  0  0999 V2000
  -28.7180   39.2740   11.5380 C   0  0  0  0  0  0  0  0  0  0  0  0
  -28.9020   40.4540   12.5710 C   0  0  0  0  0  0  0  0  0  0  0  0
  -29.6510   41.5840   11.9450 C   0  0  0  0  0  0  0  0  0  0  0  0
  -29.6000   39.9280   13.8470 C   0  0  0  0  0  0  0  0  0  0  0  0
  -30.6000   40.9430   14.4550 C   0  0  0  0  0  0  0  0  0  0  0  0
  -32.7510   39.3310   14.6870 C   0  0  0  0  0  0  0  0  0  0  0  0
  -33.8500   39.3670   13.6850 C   0  0  0  0  0  0  0  0  0  0  0  0
  -31.9140   40.3990   14.3050 N   0  0  0  0  0  0  0  0  0  0  0  0
  -33.8210   40.6150   13.0580 N   0  0  0  0  0  0  0  0  0  0  0  0
  -32.6380   41.2680   13.4280 N   0  0  0  0  0  0  0  0  0  0  0  0
  -34.6220   38.4730   13.4570 O   0  0  0  0  0  0  0  0  0  0  0  0
  1  2  1  0  0  0  0
  2  4  1  0  0  0  0
  3  2  1  0  0  0  0
  4  5  1  0  0  0  0
  7  6  1  0  0  0  0
  8  5  1  0  0  0  0
  8  6  1  0  0  0  0
  9 10  1  0  0  0  0
  9  7  2  0  0  0  0
 10  8  1  0  0  0  0
 11  7  2  0  0  0  0
M  END
$$$$
