Candidata_001
     RDKit          3D

 29 30  0  0  0  0  0  0  0  0999 V2000
    2.4178    2.5364   -1.3872 O   0  0  0  0  0  0  0  0  0  0  0  0
    3.1339    1.6397   -0.9752 C   0  0  0  0  0  0  0  0  0  0  0  0
    4.4737    1.7195   -1.1462 O   0  0  0  0  0  0  0  0  0  0  0  0
    2.7329    0.3725   -0.2425 C   0  0  0  0  0  0  0  0  0  0  0  0
    1.3188    0.2842   -0.1393 O   0  0  0  0  0  0  0  0  0  0  0  0
    0.7826   -0.7999    0.5112 C   0  0  0  0  0  0  0  0  0  0  0  0
    1.5481   -1.8040    1.1197 C   0  0  0  0  0  0  0  0  0  0  0  0
    0.9203   -2.8759    1.7554 C   0  0  0  0  0  0  0  0  0  0  0  0
    1.9672   -4.2229    2.5730 Br  0  0  0  0  0  0  0  0  0  0  0  0
   -0.4654   -2.9653    1.7959 C   0  0  0  0  0  0  0  0  0  0  0  0
   -1.2331   -1.9702    1.1913 C   0  0  0  0  0  0  0  0  0  0  0  0
   -0.6310   -0.8748    0.5401 C   0  0  0  0  0  0  0  0  0  0  0  0
   -1.4955    0.1463   -0.0856 C   0  0  0  0  0  0  0  0  0  0  0  0
   -1.4488    1.4892    0.3222 C   0  0  0  0  0  0  0  0  0  0  0  0
   -2.2783    2.4494   -0.2631 C   0  0  0  0  0  0  0  0  0  0  0  0
   -3.1726    2.0813   -1.2650 C   0  0  0  0  0  0  0  0  0  0  0  0
   -3.2364    0.7549   -1.6839 C   0  0  0  0  0  0  0  0  0  0  0  0
   -2.4048   -0.2038   -1.0988 C   0  0  0  0  0  0  0  0  0  0  0  0
    4.5914    2.5689   -1.6232 H   0  0  0  0  0  0  0  0  0  0  0  0
    3.1817    0.4230    0.7559 H   0  0  0  0  0  0  0  0  0  0  0  0
    3.1187   -0.4777   -0.8163 H   0  0  0  0  0  0  0  0  0  0  0  0
    2.6320   -1.7752    1.1121 H   0  0  0  0  0  0  0  0  0  0  0  0
   -0.9582   -3.7965    2.2929 H   0  0  0  0  0  0  0  0  0  0  0  0
   -2.3187   -2.0439    1.2367 H   0  0  0  0  0  0  0  0  0  0  0  0
   -0.7537    1.7975    1.1003 H   0  0  0  0  0  0  0  0  0  0  0  0
   -2.2187    3.4849    0.0612 H   0  0  0  0  0  0  0  0  0  0  0  0
   -3.8141    2.8293   -1.7230 H   0  0  0  0  0  0  0  0  0  0  0  0
   -3.9282    0.4655   -2.4703 H   0  0  0  0  0  0  0  0  0  0  0  0
   -2.4618   -1.2324   -1.4484 H   0  0  0  0  0  0  0  0  0  0  0  0
  1  2  2  0
  2  3  1  0
  2  4  1  0
  4  5  1  0
  5  6  1  0
  6  7  1  0
  7  8  2  0
  8  9  1  0
  8 10  1  0
 10 11  2  0
 11 12  1  0
 12 13  1  0
 13 14  2  0
 14 15  1  0
 15 16  2  0
 16 17  1  0
 17 18  2  0
 12  6  2  0
 18 13  1  0
  3 19  1  0
  4 20  1  0
  4 21  1  0
  7 22  1  0
 10 23  1  0
 11 24  1  0
 14 25  1  0
 15 26  1  0
 16 27  1  0
 17 28  1  0
 18 29  1  0
M  END
>  <Rank>  (1) 
1

>  <Score>  (1) 
0.9110

>  <Pharma_Score>  (1) 
1.0000

>  <QED>  (1) 
0.9390

>  <MW>  (1) 
307.14

>  <LogP>  (1) 
3.58

>  <PSA>  (1) 
46.5

>  <SA_Score>  (1) 
1.69

>  <HBD>  (1) 
1

>  <HBA>  (1) 
2

>  <Lip_Violations>  (1) 
0

>  <SMILES>  (1) 
O=C(O)COc1cc(Br)ccc1-c1ccccc1

$$$$
Candidata_002
     RDKit          3D

 25 26  0  0  0  0  0  0  0  0999 V2000
   -3.9174    0.2142    1.8910 O   0  0  0  0  0  0  0  0  0  0  0  0
   -2.9255   -0.4987    1.9087 C   0  0  0  0  0  0  0  0  0  0  0  0
   -2.1270   -0.5347    2.9937 O   0  0  0  0  0  0  0  0  0  0  0  0
   -2.4826   -1.4307    0.7937 C   0  0  0  0  0  0  0  0  0  0  0  0
   -1.1016   -1.3883    0.4748 O   0  0  0  0  0  0  0  0  0  0  0  0
   -0.5979   -0.2860   -0.1745 C   0  0  0  0  0  0  0  0  0  0  0  0
   -1.3802    0.7590   -0.6765 C   0  0  0  0  0  0  0  0  0  0  0  0
   -0.7716    1.8316   -1.3251 C   0  0  0  0  0  0  0  0  0  0  0  0
   -1.8378    3.2422   -2.0000 Br  0  0  0  0  0  0  0  0  0  0  0  0
    0.6098    1.8803   -1.4860 C   0  0  0  0  0  0  0  0  0  0  0  0
    1.4140    0.8440   -0.9954 C   0  0  0  0  0  0  0  0  0  0  0  0
    2.8091    0.8885   -1.1573 C   0  0  0  0  0  0  0  0  0  0  0  0
    3.6199   -0.1370   -0.6724 C   0  0  0  0  0  0  0  0  0  0  0  0
    3.0465   -1.2202   -0.0189 C   0  0  0  0  0  0  0  0  0  0  0  0
    1.6614   -1.2777    0.1491 C   0  0  0  0  0  0  0  0  0  0  0  0
    0.8139   -0.2552   -0.3318 C   0  0  0  0  0  0  0  0  0  0  0  0
   -2.5171    0.1177    3.6114 H   0  0  0  0  0  0  0  0  0  0  0  0
   -2.7051   -2.4487    1.1343 H   0  0  0  0  0  0  0  0  0  0  0  0
   -3.1000   -1.2737   -0.0982 H   0  0  0  0  0  0  0  0  0  0  0  0
   -2.4605    0.7656   -0.5830 H   0  0  0  0  0  0  0  0  0  0  0  0
    1.0629    2.7274   -1.9961 H   0  0  0  0  0  0  0  0  0  0  0  0
    3.2786    1.7283   -1.6658 H   0  0  0  0  0  0  0  0  0  0  0  0
    4.6974   -0.0882   -0.8052 H   0  0  0  0  0  0  0  0  0  0  0  0
    3.6724   -2.0226    0.3627 H   0  0  0  0  0  0  0  0  0  0  0  0
    1.2385   -2.1369    0.6668 H   0  0  0  0  0  0  0  0  0  0  0  0
  1  2  2  0
  2  3  1  0
  2  4  1  0
  4  5  1  0
  5  6  1  0
  6  7  2  0
  7  8  1  0
  8  9  1  0
  8 10  2  0
 10 11  1  0
 11 12  2  0
 12 13  1  0
 13 14  2  0
 14 15  1  0
 15 16  2  0
 16  6  1  0
 16 11  1  0
  3 17  1  0
  4 18  1  0
  4 19  1  0
  7 20  1  0
 10 21  1  0
 12 22  1  0
 13 23  1  0
 14 24  1  0
 15 25  1  0
M  END
>  <Rank>  (2) 
2

>  <Score>  (2) 
0.9060

>  <Pharma_Score>  (2) 
1.0000

>  <QED>  (2) 
0.9400

>  <MW>  (2) 
281.11

>  <LogP>  (2) 
3.07

>  <PSA>  (2) 
46.5

>  <SA_Score>  (2) 
1.82

>  <HBD>  (2) 
1

>  <HBA>  (2) 
2

>  <Lip_Violations>  (2) 
0

>  <SMILES>  (2) 
O=C(O)COc1cc(Br)cc2ccccc12

$$$$
Candidata_003
     RDKit          3D

 32 33  0  0  0  0  0  0  0  0999 V2000
    3.1467    1.4584   -3.3411 O   0  0  0  0  0  0  0  0  0  0  0  0
    2.7336    1.3642   -2.1939 C   0  0  0  0  0  0  0  0  0  0  0  0
    2.4681    2.4782   -1.4839 O   0  0  0  0  0  0  0  0  0  0  0  0
    2.5288    0.0603   -1.4426 C   0  0  0  0  0  0  0  0  0  0  0  0
    1.7155    0.2261   -0.2888 O   0  0  0  0  0  0  0  0  0  0  0  0
    1.3240   -0.9036    0.3802 C   0  0  0  0  0  0  0  0  0  0  0  0
    1.8664   -2.1756    0.1676 C   0  0  0  0  0  0  0  0  0  0  0  0
    1.4063   -3.2643    0.9101 C   0  0  0  0  0  0  0  0  0  0  0  0
    2.1462   -4.9799    0.6117 Br  0  0  0  0  0  0  0  0  0  0  0  0
    0.4120   -3.1036    1.8686 C   0  0  0  0  0  0  0  0  0  0  0  0
   -0.1278   -1.8381    2.0901 C   0  0  0  0  0  0  0  0  0  0  0  0
    0.3224   -0.7262    1.3555 C   0  0  0  0  0  0  0  0  0  0  0  0
   -0.3052    0.6299    1.6126 C   0  0  0  0  0  0  0  0  0  0  0  0
   -1.4480    0.9613    0.6789 C   0  0  0  0  0  0  0  0  0  0  0  0
   -2.7281    0.4311    0.8951 C   0  0  0  0  0  0  0  0  0  0  0  0
   -3.7767    0.7317    0.0238 C   0  0  0  0  0  0  0  0  0  0  0  0
   -3.5571    1.5629   -1.0729 C   0  0  0  0  0  0  0  0  0  0  0  0
   -2.2891    2.0938   -1.3001 C   0  0  0  0  0  0  0  0  0  0  0  0
   -1.2401    1.7943   -0.4296 C   0  0  0  0  0  0  0  0  0  0  0  0
    2.6691    3.2125   -2.1000 H   0  0  0  0  0  0  0  0  0  0  0  0
    2.0460   -0.6322   -2.1421 H   0  0  0  0  0  0  0  0  0  0  0  0
    3.5225   -0.2975   -1.1516 H   0  0  0  0  0  0  0  0  0  0  0  0
    2.6502   -2.3431   -0.5627 H   0  0  0  0  0  0  0  0  0  0  0  0
    0.0515   -3.9508    2.4457 H   0  0  0  0  0  0  0  0  0  0  0  0
   -0.9071   -1.7201    2.8401 H   0  0  0  0  0  0  0  0  0  0  0  0
   -0.6703    0.6770    2.6479 H   0  0  0  0  0  0  0  0  0  0  0  0
    0.4635    1.4125    1.5662 H   0  0  0  0  0  0  0  0  0  0  0  0
   -2.9160   -0.2216    1.7439 H   0  0  0  0  0  0  0  0  0  0  0  0
   -4.7648    0.3150    0.1999 H   0  0  0  0  0  0  0  0  0  0  0  0
   -4.3734    1.7950   -1.7515 H   0  0  0  0  0  0  0  0  0  0  0  0
   -2.1154    2.7399   -2.1563 H   0  0  0  0  0  0  0  0  0  0  0  0
   -0.2540    2.2126   -0.6203 H   0  0  0  0  0  0  0  0  0  0  0  0
  1  2  2  0
  2  3  1  0
  2  4  1  0
  4  5  1  0
  5  6  1  0
  6  7  1  0
  7  8  2  0
  8  9  1  0
  8 10  1  0
 10 11  2  0
 11 12  1  0
 12 13  1  0
 13 14  1  0
 14 15  2  0
 15 16  1  0
 16 17  2  0
 17 18  1  0
 18 19  2  0
 12  6  2  0
 19 14  1  0
  3 20  1  0
  4 21  1  0
  4 22  1  0
  7 23  1  0
 10 24  1  0
 11 25  1  0
 13 26  1  0
 13 27  1  0
 15 28  1  0
 16 29  1  0
 17 30  1  0
 18 31  1  0
 19 32  1  0
M  END
>  <Rank>  (3) 
3

>  <Score>  (3) 
0.9000

>  <Pharma_Score>  (3) 
1.0000

>  <QED>  (3) 
0.9170

>  <MW>  (3) 
321.17

>  <LogP>  (3) 
3.50

>  <PSA>  (3) 
46.5

>  <SA_Score>  (3) 
1.77

>  <HBD>  (3) 
1

>  <HBA>  (3) 
2

>  <Lip_Violations>  (3) 
0

>  <SMILES>  (3) 
O=C(O)COc1cc(Br)ccc1Cc1ccccc1

$$$$
Candidata_004
     RDKit          3D

 22 22  0  0  0  0  0  0  0  0999 V2000
   -1.5642   -2.0688    0.2857 C   0  0  0  0  0  0  0  0  0  0  0  0
   -1.3907   -0.6265   -0.1076 C   0  0  0  0  0  0  0  0  0  0  0  0
   -2.4731    0.2588    0.0110 C   0  0  0  0  0  0  0  0  0  0  0  0
   -2.3322    1.5984   -0.3451 C   0  0  0  0  0  0  0  0  0  0  0  0
   -1.1077    2.0548   -0.8219 C   0  0  0  0  0  0  0  0  0  0  0  0
   -0.9171    3.8735   -1.3086 Br  0  0  0  0  0  0  0  0  0  0  0  0
   -0.0191    1.1889   -0.9470 C   0  0  0  0  0  0  0  0  0  0  0  0
   -0.1528   -0.1558   -0.5882 C   0  0  0  0  0  0  0  0  0  0  0  0
    0.8393   -1.0979   -0.6682 O   0  0  0  0  0  0  0  0  0  0  0  0
    2.1463   -0.6848   -1.0321 C   0  0  0  0  0  0  0  0  0  0  0  0
    2.9047    0.0964    0.0276 C   0  0  0  0  0  0  0  0  0  0  0  0
    3.5682    1.1036   -0.1669 O   0  0  0  0  0  0  0  0  0  0  0  0
    2.8248   -0.4423    1.2605 O   0  0  0  0  0  0  0  0  0  0  0  0
   -2.5828   -2.2710    0.6334 H   0  0  0  0  0  0  0  0  0  0  0  0
   -0.8787   -2.3242    1.1002 H   0  0  0  0  0  0  0  0  0  0  0  0
   -1.3714   -2.7215   -0.5719 H   0  0  0  0  0  0  0  0  0  0  0  0
   -3.4333   -0.0924    0.3828 H   0  0  0  0  0  0  0  0  0  0  0  0
   -3.1789    2.2726   -0.2480 H   0  0  0  0  0  0  0  0  0  0  0  0
    0.9129    1.5915   -1.3283 H   0  0  0  0  0  0  0  0  0  0  0  0
    2.1365   -0.1280   -1.9761 H   0  0  0  0  0  0  0  0  0  0  0  0
    2.7304   -1.5920   -1.2256 H   0  0  0  0  0  0  0  0  0  0  0  0
    3.3391    0.1665    1.8299 H   0  0  0  0  0  0  0  0  0  0  0  0
  1  2  1  0
  2  3  1  0
  3  4  2  0
  4  5  1  0
  5  6  1  0
  5  7  2  0
  7  8  1  0
  8  9  1  0
  9 10  1  0
 10 11  1  0
 11 12  2  0
 11 13  1  0
  8  2  2  0
  1 14  1  0
  1 15  1  0
  1 16  1  0
  3 17  1  0
  4 18  1  0
  7 19  1  0
 10 20  1  0
 10 21  1  0
 13 22  1  0
M  END
>  <Rank>  (4) 
4

>  <Score>  (4) 
0.8910

>  <Pharma_Score>  (4) 
1.0000

>  <QED>  (4) 
0.8880

>  <MW>  (4) 
245.07

>  <LogP>  (4) 
2.22

>  <PSA>  (4) 
46.5

>  <SA_Score>  (4) 
1.74

>  <HBD>  (4) 
1

>  <HBA>  (4) 
2

>  <Lip_Violations>  (4) 
0

>  <SMILES>  (4) 
Cc1ccc(Br)cc1OCC(=O)O

$$$$
Candidata_005
     RDKit          3D

 29 30  0  0  0  0  0  0  0  0999 V2000
    3.8086   -1.5176    0.7554 O   0  0  0  0  0  0  0  0  0  0  0  0
    2.8002   -1.6459    1.4254 C   0  0  0  0  0  0  0  0  0  0  0  0
    2.8509   -1.9621    2.7291 O   0  0  0  0  0  0  0  0  0  0  0  0
    1.5170   -1.5134    1.0483 O   0  0  0  0  0  0  0  0  0  0  0  0
    1.3091   -1.1732   -0.3257 C   0  0  0  0  0  0  0  0  0  0  0  0
    1.0786    0.3161   -0.4567 C   0  0  0  0  0  0  0  0  0  0  0  0
    2.1896    1.1428   -0.7176 C   0  0  0  0  0  0  0  0  0  0  0  0
    2.0356    2.5223   -0.8376 C   0  0  0  0  0  0  0  0  0  0  0  0
    3.5414    3.6087   -1.1912 Br  0  0  0  0  0  0  0  0  0  0  0  0
    0.7821    3.1046   -0.6974 C   0  0  0  0  0  0  0  0  0  0  0  0
   -0.3251    2.2975   -0.4303 C   0  0  0  0  0  0  0  0  0  0  0  0
   -0.1998    0.9004   -0.3006 C   0  0  0  0  0  0  0  0  0  0  0  0
   -1.4046    0.1087   -0.0115 C   0  0  0  0  0  0  0  0  0  0  0  0
   -1.6214   -0.4355    1.2636 C   0  0  0  0  0  0  0  0  0  0  0  0
   -2.7679   -1.1852    1.5358 C   0  0  0  0  0  0  0  0  0  0  0  0
   -3.7160   -1.3969    0.5372 C   0  0  0  0  0  0  0  0  0  0  0  0
   -3.5193   -0.8596   -0.7330 C   0  0  0  0  0  0  0  0  0  0  0  0
   -2.3719   -0.1108   -1.0050 C   0  0  0  0  0  0  0  0  0  0  0  0
    3.8087   -2.0291    2.9101 H   0  0  0  0  0  0  0  0  0  0  0  0
    0.4400   -1.7359   -0.6835 H   0  0  0  0  0  0  0  0  0  0  0  0
    2.1395   -1.4980   -0.9662 H   0  0  0  0  0  0  0  0  0  0  0  0
    3.1790    0.7005   -0.8248 H   0  0  0  0  0  0  0  0  0  0  0  0
    0.6533    4.1797   -0.7874 H   0  0  0  0  0  0  0  0  0  0  0  0
   -1.3011    2.7663   -0.3117 H   0  0  0  0  0  0  0  0  0  0  0  0
   -0.8900   -0.2789    2.0548 H   0  0  0  0  0  0  0  0  0  0  0  0
   -2.9181   -1.6030    2.5279 H   0  0  0  0  0  0  0  0  0  0  0  0
   -4.6081   -1.9802    0.7496 H   0  0  0  0  0  0  0  0  0  0  0  0
   -4.2584   -1.0229   -1.5130 H   0  0  0  0  0  0  0  0  0  0  0  0
   -2.2318    0.3006   -2.0026 H   0  0  0  0  0  0  0  0  0  0  0  0
  1  2  2  0
  2  3  1  0
  2  4  1  0
  4  5  1  0
  5  6  1  0
  6  7  1  0
  7  8  2  0
  8  9  1  0
  8 10  1  0
 10 11  2  0
 11 12  1  0
 12 13  1  0
 13 14  2  0
 14 15  1  0
 15 16  2  0
 16 17  1  0
 17 18  2  0
 12  6  2  0
 18 13  1  0
  3 19  1  0
  5 20  1  0
  5 21  1  0
  7 22  1  0
 10 23  1  0
 11 24  1  0
 14 25  1  0
 15 26  1  0
 16 27  1  0
 17 28  1  0
 18 29  1  0
M  END
>  <Rank>  (5) 
5

>  <Score>  (5) 
0.8750

>  <Pharma_Score>  (5) 
1.0000

>  <QED>  (5) 
0.8590

>  <MW>  (5) 
307.14

>  <LogP>  (5) 
4.31

>  <PSA>  (5) 
46.5

>  <SA_Score>  (5) 
1.89

>  <HBD>  (5) 
1

>  <HBA>  (5) 
2

>  <Lip_Violations>  (5) 
0

>  <SMILES>  (5) 
O=C(O)OCc1cc(Br)ccc1-c1ccccc1

$$$$
Candidata_006
     RDKit          3D

 22 22  0  0  0  0  0  0  0  0999 V2000
    3.0357    0.2870    1.0894 O   0  0  0  0  0  0  0  0  0  0  0  0
    3.0268    0.2200   -0.1283 C   0  0  0  0  0  0  0  0  0  0  0  0
    4.0537    0.7332   -0.8408 O   0  0  0  0  0  0  0  0  0  0  0  0
    1.9594   -0.3907   -1.0220 C   0  0  0  0  0  0  0  0  0  0  0  0
    0.8596   -0.9519   -0.3178 O   0  0  0  0  0  0  0  0  0  0  0  0
   -0.2017   -0.1432   -0.0082 C   0  0  0  0  0  0  0  0  0  0  0  0
   -0.1638    1.2547   -0.0114 C   0  0  0  0  0  0  0  0  0  0  0  0
   -1.3051    1.9853    0.3240 C   0  0  0  0  0  0  0  0  0  0  0  0
   -1.2424    3.8763    0.3106 Br  0  0  0  0  0  0  0  0  0  0  0  0
   -2.4879    1.3408    0.6689 C   0  0  0  0  0  0  0  0  0  0  0  0
   -2.5287   -0.0520    0.6876 C   0  0  0  0  0  0  0  0  0  0  0  0
   -1.3883   -0.8076    0.3602 C   0  0  0  0  0  0  0  0  0  0  0  0
   -1.4730   -2.3083    0.3831 C   0  0  0  0  0  0  0  0  0  0  0  0
   -2.0533   -2.9493   -1.3601 Br  0  0  0  0  0  0  0  0  0  0  0  0
    4.6647    1.0811   -0.1562 H   0  0  0  0  0  0  0  0  0  0  0  0
    1.6318    0.3347   -1.7756 H   0  0  0  0  0  0  0  0  0  0  0  0
    2.4355   -1.2207   -1.5562 H   0  0  0  0  0  0  0  0  0  0  0  0
    0.7414    1.7989   -0.2551 H   0  0  0  0  0  0  0  0  0  0  0  0
   -3.3779    1.9089    0.9261 H   0  0  0  0  0  0  0  0  0  0  0  0
   -3.4584   -0.5499    0.9569 H   0  0  0  0  0  0  0  0  0  0  0  0
   -2.2103   -2.6591    1.1119 H   0  0  0  0  0  0  0  0  0  0  0  0
   -0.5179   -2.7881    0.6128 H   0  0  0  0  0  0  0  0  0  0  0  0
  1  2  2  0
  2  3  1  0
  2  4  1  0
  4  5  1  0
  5  6  1  0
  6  7  1  0
  7  8  2  0
  8  9  1  0
  8 10  1  0
 10 11  2  0
 11 12  1  0
 12 13  1  0
 13 14  1  0
 12  6  2  0
  3 15  1  0
  4 16  1  0
  4 17  1  0
  7 18  1  0
 10 19  1  0
 11 20  1  0
 13 21  1  0
 13 22  1  0
M  END
>  <Rank>  (6) 
6

>  <Score>  (6) 
0.8670

>  <Pharma_Score>  (6) 
1.0000

>  <QED>  (6) 
0.8670

>  <MW>  (6) 
323.97

>  <LogP>  (6) 
2.81

>  <PSA>  (6) 
46.5

>  <SA_Score>  (6) 
2.15

>  <HBD>  (6) 
1

>  <HBA>  (6) 
2

>  <Lip_Violations>  (6) 
0

>  <SMILES>  (6) 
O=C(O)COc1cc(Br)ccc1CBr

$$$$
Candidata_007
     RDKit          3D

 33 34  0  0  0  0  0  0  0  0999 V2000
    2.5623    4.1240   -0.9009 O   0  0  0  0  0  0  0  0  0  0  0  0
    2.0223    3.0336   -1.0176 C   0  0  0  0  0  0  0  0  0  0  0  0
    0.7528    2.9543   -1.4663 O   0  0  0  0  0  0  0  0  0  0  0  0
    2.6810    1.6910   -0.7691 C   0  0  0  0  0  0  0  0  0  0  0  0
    1.7728    0.7933   -0.1481 O   0  0  0  0  0  0  0  0  0  0  0  0
    2.1733   -0.5052    0.0383 C   0  0  0  0  0  0  0  0  0  0  0  0
    3.4784   -0.9630   -0.1797 C   0  0  0  0  0  0  0  0  0  0  0  0
    3.8012   -2.2991    0.0661 C   0  0  0  0  0  0  0  0  0  0  0  0
    5.5685   -2.9044   -0.2335 Br  0  0  0  0  0  0  0  0  0  0  0  0
    2.8414   -3.1901    0.5345 C   0  0  0  0  0  0  0  0  0  0  0  0
    1.5403   -2.7413    0.7584 C   0  0  0  0  0  0  0  0  0  0  0  0
    1.1904   -1.4053    0.5061 C   0  0  0  0  0  0  0  0  0  0  0  0
   -0.2032   -1.0158    0.7824 C   0  0  0  0  0  0  0  0  0  0  0  0
   -0.9864   -0.4177   -0.1294 C   0  0  0  0  0  0  0  0  0  0  0  0
   -2.3747   -0.0077    0.1186 C   0  0  0  0  0  0  0  0  0  0  0  0
   -2.8386    1.1806   -0.4606 C   0  0  0  0  0  0  0  0  0  0  0  0
   -4.1596    1.5953   -0.2744 C   0  0  0  0  0  0  0  0  0  0  0  0
   -5.0330    0.8195    0.4847 C   0  0  0  0  0  0  0  0  0  0  0  0
   -4.5877   -0.3722    1.0535 C   0  0  0  0  0  0  0  0  0  0  0  0
   -3.2661   -0.7865    0.8675 C   0  0  0  0  0  0  0  0  0  0  0  0
    0.4769    3.8886   -1.5678 H   0  0  0  0  0  0  0  0  0  0  0  0
    3.0165    1.3097   -1.7403 H   0  0  0  0  0  0  0  0  0  0  0  0
    3.5346    1.8669   -0.1047 H   0  0  0  0  0  0  0  0  0  0  0  0
    4.2619   -0.2992   -0.5284 H   0  0  0  0  0  0  0  0  0  0  0  0
    3.0922   -4.2294    0.7290 H   0  0  0  0  0  0  0  0  0  0  0  0
    0.7940   -3.4443    1.1231 H   0  0  0  0  0  0  0  0  0  0  0  0
   -0.5678   -1.2495    1.7785 H   0  0  0  0  0  0  0  0  0  0  0  0
   -0.5946   -0.1755   -1.1152 H   0  0  0  0  0  0  0  0  0  0  0  0
   -2.1677    1.7977   -1.0546 H   0  0  0  0  0  0  0  0  0  0  0  0
   -4.5051    2.5228   -0.7228 H   0  0  0  0  0  0  0  0  0  0  0  0
   -6.0611    1.1407    0.6293 H   0  0  0  0  0  0  0  0  0  0  0  0
   -5.2698   -0.9834    1.6385 H   0  0  0  0  0  0  0  0  0  0  0  0
   -2.9455   -1.7285    1.3046 H   0  0  0  0  0  0  0  0  0  0  0  0
  1  2  2  0
  2  3  1  0
  2  4  1  0
  4  5  1  0
  5  6  1  0
  6  7  1  0
  7  8  2  0
  8  9  1  0
  8 10  1  0
 10 11  2  0
 11 12  1  0
 12 13  1  0
 13 14  2  3
 14 15  1  0
 15 16  2  0
 16 17  1  0
 17 18  2  0
 18 19  1  0
 19 20  2  0
 12  6  2  0
 20 15  1  0
  3 21  1  0
  4 22  1  0
  4 23  1  0
  7 24  1  0
 10 25  1  0
 11 26  1  0
 13 27  1  0
 14 28  1  0
 16 29  1  0
 17 30  1  0
 18 31  1  0
 19 32  1  0
 20 33  1  0
M  END
>  <Rank>  (7) 
7

>  <Score>  (7) 
0.8660

>  <Pharma_Score>  (7) 
1.0000

>  <QED>  (7) 
0.8390

>  <MW>  (7) 
333.18

>  <LogP>  (7) 
4.08

>  <PSA>  (7) 
46.5

>  <SA_Score>  (7) 
1.95

>  <HBD>  (7) 
1

>  <HBA>  (7) 
2

>  <Lip_Violations>  (7) 
0

>  <SMILES>  (7) 
O=C(O)COc1cc(Br)ccc1C=Cc1ccccc1

$$$$
Candidata_008
     RDKit          3D

 18 18  0  0  0  0  0  0  0  0999 V2000
    1.7406   -1.6020    1.9165 O   0  0  0  0  0  0  0  0  0  0  0  0
    1.6036   -0.8799    0.9470 C   0  0  0  0  0  0  0  0  0  0  0  0
    2.6632   -0.3893    0.2864 O   0  0  0  0  0  0  0  0  0  0  0  0
    0.3137   -0.5375    0.3018 C   0  0  0  0  0  0  0  0  0  0  0  0
   -0.6559   -1.5546    0.3255 C   0  0  0  0  0  0  0  0  0  0  0  0
   -1.9059   -1.3430   -0.2473 C   0  0  0  0  0  0  0  0  0  0  0  0
   -3.1986   -2.7212   -0.2204 Br  0  0  0  0  0  0  0  0  0  0  0  0
   -2.2105   -0.1223   -0.8382 C   0  0  0  0  0  0  0  0  0  0  0  0
   -1.2576    0.8987   -0.8496 C   0  0  0  0  0  0  0  0  0  0  0  0
    0.0192    0.7148   -0.2805 C   0  0  0  0  0  0  0  0  0  0  0  0
    0.9656    1.8829   -0.2849 C   0  0  0  0  0  0  0  0  0  0  0  0
    1.0436    2.6723    1.4907 Br  0  0  0  0  0  0  0  0  0  0  0  0
    3.4310   -0.7291    0.7938 H   0  0  0  0  0  0  0  0  0  0  0  0
   -0.4260   -2.5107    0.7929 H   0  0  0  0  0  0  0  0  0  0  0  0
   -3.1877    0.0507   -1.2827 H   0  0  0  0  0  0  0  0  0  0  0  0
   -1.5273    1.8537   -1.2996 H   0  0  0  0  0  0  0  0  0  0  0  0
    1.9766    1.6332   -0.6077 H   0  0  0  0  0  0  0  0  0  0  0  0
    0.6125    2.6831   -0.9439 H   0  0  0  0  0  0  0  0  0  0  0  0
  1  2  2  0
  2  3  1  0
  2  4  1  0
  4  5  1  0
  5  6  2  0
  6  7  1  0
  6  8  1  0
  8  9  2  0
  9 10  1  0
 10 11  1  0
 11 12  1  0
 10  4  2  0
  3 13  1  0
  5 14  1  0
  8 15  1  0
  9 16  1  0
 11 17  1  0
 11 18  1  0
M  END
>  <Rank>  (8) 
8

>  <Score>  (8) 
0.8640

>  <Pharma_Score>  (8) 
1.0000

>  <QED>  (8) 
0.8510

>  <MW>  (8) 
293.94

>  <LogP>  (8) 
3.04

>  <PSA>  (8) 
37.3

>  <SA_Score>  (8) 
2.09

>  <HBD>  (8) 
1

>  <HBA>  (8) 
1

>  <Lip_Violations>  (8) 
0

>  <SMILES>  (8) 
O=C(O)c1cc(Br)ccc1CBr

$$$$
Candidata_009
     RDKit          3D

 29 30  0  0  0  0  0  0  0  0999 V2000
    0.7866   -2.1983   -0.8330 C   0  0  0  0  0  1  0  0  0  0  0  0
    1.4555   -1.2901    0.2432 C   0  0  0  0  0  0  0  0  0  0  0  0
    2.2397   -1.9245    1.2147 C   0  0  0  0  0  0  0  0  0  0  0  0
    2.8968   -1.1779    2.1940 C   0  0  0  0  0  0  0  0  0  0  0  0
    2.7732    0.2084    2.2038 C   0  0  0  0  0  0  0  0  0  0  0  0
    1.9919    0.8481    1.2381 C   0  0  0  0  0  0  0  0  0  0  0  0
    1.3184    0.1127    0.2417 C   0  0  0  0  0  0  0  0  0  0  0  0
    0.4924    0.8372   -0.7399 C   0  0  0  0  0  0  0  0  0  0  0  0
    1.0947    1.4631   -1.8447 C   0  0  0  0  0  0  0  0  0  0  0  0
    0.3251    2.1622   -2.7786 C   0  0  0  0  0  0  0  0  0  0  0  0
   -1.0550    2.2511   -2.6101 C   0  0  0  0  0  0  0  0  0  0  0  0
   -2.0911    3.2147   -3.8641 Br  0  0  0  0  0  0  0  0  0  0  0  0
   -1.6776    1.6436   -1.5225 C   0  0  0  0  0  0  0  0  0  0  0  0
   -0.9062    0.9272   -0.6030 C   0  0  0  0  0  0  0  0  0  0  0  0
   -1.4872    0.3529    0.5000 O   0  0  0  0  0  0  0  0  0  0  0  0
   -2.4690   -0.6244    0.1493 C   0  0  0  0  0  0  0  0  0  0  0  0
   -2.5254   -1.6989    1.2185 C   0  0  0  0  0  0  0  0  0  0  0  0
   -1.8316   -1.8055    2.2169 O   0  0  0  0  0  0  0  0  0  0  0  0
   -3.4896   -2.6135    0.9682 O   0  0  0  0  0  0  0  0  0  0  0  0
    2.3375   -3.0070    1.2093 H   0  0  0  0  0  0  0  0  0  0  0  0
    3.4984   -1.6789    2.9485 H   0  0  0  0  0  0  0  0  0  0  0  0
    3.2767    0.7949    2.9694 H   0  0  0  0  0  0  0  0  0  0  0  0
    1.8941    1.9324    1.2713 H   0  0  0  0  0  0  0  0  0  0  0  0
    2.1722    1.4024   -1.9869 H   0  0  0  0  0  0  0  0  0  0  0  0
    0.8125    2.6343   -3.6279 H   0  0  0  0  0  0  0  0  0  0  0  0
   -2.7497    1.7391   -1.3823 H   0  0  0  0  0  0  0  0  0  0  0  0
   -2.2364   -1.1169   -0.8030 H   0  0  0  0  0  0  0  0  0  0  0  0
   -3.4485   -0.1369    0.1021 H   0  0  0  0  0  0  0  0  0  0  0  0
   -3.3983   -3.2516    1.7071 H   0  0  0  0  0  0  0  0  0  0  0  0
  1  2  1  0
  2  3  2  0
  3  4  1  0
  4  5  2  0
  5  6  1  0
  6  7  2  0
  7  8  1  0
  8  9  1  0
  9 10  2  0
 10 11  1  0
 11 12  1  0
 11 13  2  0
 13 14  1  0
 14 15  1  0
 15 16  1  0
 16 17  1  0
 17 18  2  0
 17 19  1  0
  7  2  1  0
 14  8  2  0
  3 20  1  0
  4 21  1  0
  5 22  1  0
  6 23  1  0
  9 24  1  0
 10 25  1  0
 13 26  1  0
 16 27  1  0
 16 28  1  0
 19 29  1  0
M  CHG  1   1  -1
M  RAD  1   1   3
M  END
>  <Rank>  (9) 
9

>  <Score>  (9) 
0.8560

>  <Pharma_Score>  (9) 
1.0000

>  <QED>  (9) 
0.8780

>  <MW>  (9) 
318.15

>  <LogP>  (9) 
3.52

>  <PSA>  (9) 
46.5

>  <SA_Score>  (9) 
2.54

>  <HBD>  (9) 
1

>  <HBA>  (9) 
2

>  <Lip_Violations>  (9) 
0

>  <SMILES>  (9) 
[C-]c1ccccc1-c1ccc(Br)cc1OCC(=O)O

$$$$
Candidata_010
     RDKit          3D

 28 29  0  0  0  0  0  0  0  0999 V2000
   -3.2392   -3.0942    0.2429 O   0  0  0  0  0  0  0  0  0  0  0  0
   -2.2236   -2.4866   -0.0638 C   0  0  0  0  0  0  0  0  0  0  0  0
   -1.1014   -3.1657   -0.3749 O   0  0  0  0  0  0  0  0  0  0  0  0
   -2.0690   -0.9784   -0.0749 C   0  0  0  0  0  0  0  0  0  0  0  0
   -1.1481   -0.5599   -1.0843 O   0  0  0  0  0  0  0  0  0  0  0  0
   -0.8864    0.7836   -0.9649 C   0  0  0  0  0  0  0  0  0  0  0  0
   -1.7132    1.6664   -1.6668 C   0  0  0  0  0  0  0  0  0  0  0  0
   -1.4633    3.0331   -1.6041 C   0  0  0  0  0  0  0  0  0  0  0  0
   -2.5826    4.2363   -2.5374 Br  0  0  0  0  0  0  0  0  0  0  0  0
   -0.3898    3.5198   -0.8639 C   0  0  0  0  0  0  0  0  0  0  0  0
    0.4468    2.6281   -0.1838 C   0  0  0  0  0  0  0  0  0  0  0  0
    0.2200    1.2385   -0.2189 C   0  0  0  0  0  0  0  0  0  0  0  0
    1.1283    0.3144    0.4760 C   0  0  0  0  0  0  0  0  0  0  0  0
    1.8553   -0.6769   -0.2034 C   0  0  0  0  0  0  0  0  0  0  0  0
    2.7309   -1.6065    0.3850 C   0  0  0  0  0  0  0  0  0  0  0  0
    2.9993   -1.6626    1.7595 C   0  0  0  0  0  0  0  0  0  0  0  0
    2.4345   -0.8212    2.7121 C   0  0  0  0  0  0  0  0  0  0  0  0
    1.2199    0.4957    2.3234 P   0  0  0  0  0  0  0  0  0  0  0  0
   -1.3602   -4.1071   -0.3034 H   0  0  0  0  0  0  0  0  0  0  0  0
   -1.7399   -0.6765    0.9258 H   0  0  0  0  0  0  0  0  0  0  0  0
   -3.0558   -0.5504   -0.2882 H   0  0  0  0  0  0  0  0  0  0  0  0
   -2.5382    1.2797   -2.2580 H   0  0  0  0  0  0  0  0  0  0  0  0
   -0.1861    4.5866   -0.8148 H   0  0  0  0  0  0  0  0  0  0  0  0
    1.2933    3.0287    0.3725 H   0  0  0  0  0  0  0  0  0  0  0  0
    1.7312   -0.7403   -1.2876 H   0  0  0  0  0  0  0  0  0  0  0  0
    3.2288   -2.3241   -0.2683 H   0  0  0  0  0  0  0  0  0  0  0  0
    3.7026   -2.4214    2.1066 H   0  0  0  0  0  0  0  0  0  0  0  0
    2.7059   -0.9392    3.7575 H   0  0  0  0  0  0  0  0  0  0  0  0
  1  2  2  0
  2  3  1  0
  2  4  1  0
  4  5  1  0
  5  6  1  0
  6  7  1  0
  7  8  2  0
  8  9  1  0
  8 10  1  0
 10 11  2  0
 11 12  1  0
 12 13  1  0
 13 14  2  0
 14 15  1  0
 15 16  2  0
 16 17  1  0
 17 18  2  0
 12  6  2  0
 18 13  1  0
  3 19  1  0
  4 20  1  0
  4 21  1  0
  7 22  1  0
 10 23  1  0
 11 24  1  0
 14 25  1  0
 15 26  1  0
 16 27  1  0
 17 28  1  0
M  END
>  <Rank>  (10) 
10

>  <Score>  (10) 
0.8530

>  <Pharma_Score>  (10) 
1.0000

>  <QED>  (10) 
0.9180

>  <MW>  (10) 
325.10

>  <LogP>  (10) 
4.16

>  <PSA>  (10) 
46.5

>  <SA_Score>  (10) 
2.96

>  <HBD>  (10) 
1

>  <HBA>  (10) 
2

>  <Lip_Violations>  (10) 
0

>  <SMILES>  (10) 
O=C(O)COc1cc(Br)ccc1-c1ccccp1

$$$$
Candidata_011
     RDKit          3D

 25 25  0  0  0  0  0  0  0  0999 V2000
    4.7616    0.0002    0.8613 O   0  0  0  0  0  0  0  0  0  0  0  0
    3.7557    0.5518    0.4404 C   0  0  0  0  0  0  0  0  0  0  0  0
    3.4657    1.8164    0.8055 O   0  0  0  0  0  0  0  0  0  0  0  0
    2.7712   -0.0392   -0.5528 C   0  0  0  0  0  0  0  0  0  0  0  0
    1.4207    0.2014   -0.1839 O   0  0  0  0  0  0  0  0  0  0  0  0
    0.5053   -0.3487   -1.1207 C   0  0  0  0  0  0  0  0  0  0  0  0
   -0.9045   -0.0955   -0.6375 C   0  0  0  0  0  0  0  0  0  0  0  0
   -1.7419    0.7229   -1.4201 C   0  0  0  0  0  0  0  0  0  0  0  0
   -3.0549    0.9808   -1.0293 C   0  0  0  0  0  0  0  0  0  0  0  0
   -4.1546    2.0823   -2.1024 Br  0  0  0  0  0  0  0  0  0  0  0  0
   -3.5608    0.4335    0.1425 C   0  0  0  0  0  0  0  0  0  0  0  0
   -2.7436   -0.3760    0.9313 C   0  0  0  0  0  0  0  0  0  0  0  0
   -1.4121   -0.6522    0.5601 C   0  0  0  0  0  0  0  0  0  0  0  0
   -0.5843   -1.5199    1.4709 C   0  0  0  0  0  0  0  0  0  0  0  0
    0.0420   -0.4844    2.9937 Br  0  0  0  0  0  0  0  0  0  0  0  0
    4.1505    2.0463    1.4658 H   0  0  0  0  0  0  0  0  0  0  0  0
    2.9451   -1.1206   -0.5885 H   0  0  0  0  0  0  0  0  0  0  0  0
    2.9833    0.3945   -1.5361 H   0  0  0  0  0  0  0  0  0  0  0  0
    0.6700    0.1164   -2.1000 H   0  0  0  0  0  0  0  0  0  0  0  0
    0.6645   -1.4278   -1.2337 H   0  0  0  0  0  0  0  0  0  0  0  0
   -1.3626    1.1673   -2.3379 H   0  0  0  0  0  0  0  0  0  0  0  0
   -4.5815    0.6344    0.4560 H   0  0  0  0  0  0  0  0  0  0  0  0
   -3.1497   -0.7872    1.8545 H   0  0  0  0  0  0  0  0  0  0  0  0
    0.2950   -1.9509    0.9882 H   0  0  0  0  0  0  0  0  0  0  0  0
   -1.1800   -2.3458    1.8728 H   0  0  0  0  0  0  0  0  0  0  0  0
  1  2  2  0
  2  3  1  0
  2  4  1  0
  4  5  1  0
  5  6  1  0
  6  7  1  0
  7  8  1  0
  8  9  2  0
  9 10  1  0
  9 11  1  0
 11 12  2  0
 12 13  1  0
 13 14  1  0
 14 15  1  0
 13  7  2  0
  3 16  1  0
  4 17  1  0
  4 18  1  0
  6 19  1  0
  6 20  1  0
  8 21  1  0
 11 22  1  0
 12 23  1  0
 14 24  1  0
 14 25  1  0
M  END
>  <Rank>  (11) 
11

>  <Score>  (11) 
0.8500

>  <Pharma_Score>  (11) 
1.0000

>  <QED>  (11) 
0.8400

>  <MW>  (11) 
338.00

>  <LogP>  (11) 
2.95

>  <PSA>  (11) 
46.5

>  <SA_Score>  (11) 
2.34

>  <HBD>  (11) 
1

>  <HBA>  (11) 
2

>  <Lip_Violations>  (11) 
0

>  <SMILES>  (11) 
O=C(O)COCc1cc(Br)ccc1CBr

$$$$
Candidata_012
     RDKit          3D

 27 28  0  0  0  0  0  0  0  0999 V2000
    2.8419   -1.4184   -1.2707 O   0  0  0  0  0  0  0  0  0  0  0  0
    2.8392   -1.3508   -0.0534 C   0  0  0  0  0  0  0  0  0  0  0  0
    3.4993   -2.2334    0.7181 O   0  0  0  0  0  0  0  0  0  0  0  0
    2.1482   -0.3314    0.6820 C   0  0  0  0  0  2  0  0  0  0  0  0
    1.4802    0.6069    1.3581 O   0  0  0  0  0  0  0  0  0  0  0  0
    0.7848    1.4219    0.4940 C   0  0  0  0  0  0  0  0  0  0  0  0
    1.2859    2.7165    0.3149 C   0  0  0  0  0  0  0  0  0  0  0  0
    0.6233    3.5970   -0.5343 C   0  0  0  0  0  0  0  0  0  0  0  0
    1.3024    5.3420   -0.7922 Br  0  0  0  0  0  0  0  0  0  0  0  0
   -0.5377    3.2029   -1.1942 C   0  0  0  0  0  0  0  0  0  0  0  0
   -1.0465    1.9155   -0.9959 C   0  0  0  0  0  0  0  0  0  0  0  0
   -0.4030    1.0018   -0.1414 C   0  0  0  0  0  0  0  0  0  0  0  0
   -0.9834   -0.3351    0.0628 C   0  0  0  0  0  0  0  0  0  0  0  0
   -1.0669   -1.2512   -0.9987 C   0  0  0  0  0  0  0  0  0  0  0  0
   -1.6128   -2.5226   -0.8072 C   0  0  0  0  0  0  0  0  0  0  0  0
   -2.0854   -2.8963    0.4486 C   0  0  0  0  0  0  0  0  0  0  0  0
   -2.0114   -2.0009    1.5131 C   0  0  0  0  0  0  0  0  0  0  0  0
   -1.4644   -0.7298    1.3212 C   0  0  0  0  0  0  0  0  0  0  0  0
    3.8975   -2.8496    0.0711 H   0  0  0  0  0  0  0  0  0  0  0  0
    2.1906    3.0197    0.8340 H   0  0  0  0  0  0  0  0  0  0  0  0
   -1.0595    3.8877   -1.8578 H   0  0  0  0  0  0  0  0  0  0  0  0
   -1.9650    1.6281   -1.5055 H   0  0  0  0  0  0  0  0  0  0  0  0
   -0.6900   -0.9813   -1.9836 H   0  0  0  0  0  0  0  0  0  0  0  0
   -1.6649   -3.2205   -1.6388 H   0  0  0  0  0  0  0  0  0  0  0  0
   -2.5100   -3.8855    0.5982 H   0  0  0  0  0  0  0  0  0  0  0  0
   -2.3783   -2.2901    2.4944 H   0  0  0  0  0  0  0  0  0  0  0  0
   -1.4143   -0.0431    2.1639 H   0  0  0  0  0  0  0  0  0  0  0  0
  1  2  2  0
  2  3  1  0
  2  4  1  0
  4  5  1  0
  5  6  1  0
  6  7  1  0
  7  8  2  0
  8  9  1  0
  8 10  1  0
 10 11  2  0
 11 12  1  0
 12 13  1  0
 13 14  2  0
 14 15  1  0
 15 16  2  0
 16 17  1  0
 17 18  2  0
 12  6  2  0
 18 13  1  0
  3 19  1  0
  7 20  1  0
 10 21  1  0
 11 22  1  0
 14 23  1  0
 15 24  1  0
 16 25  1  0
 17 26  1  0
 18 27  1  0
M  CHG  1   4   1
M  RAD  1   4   2
M  END
>  <Rank>  (12) 
12

>  <Score>  (12) 
0.8470

>  <Pharma_Score>  (12) 
1.0000

>  <QED>  (12) 
0.8780

>  <MW>  (12) 
305.13

>  <LogP>  (12) 
3.62

>  <PSA>  (12) 
46.5

>  <SA_Score>  (12) 
2.76

>  <HBD>  (12) 
1

>  <HBA>  (12) 
2

>  <Lip_Violations>  (12) 
0

>  <SMILES>  (12) 
O=C(O)[C+]Oc1cc(Br)ccc1-c1ccccc1

$$$$
Candidata_013
     RDKit          3D

 30 30  0  0  0  0  0  0  0  0999 V2000
    5.3100   -0.7211   -0.5106 C   0  0  0  0  0  0  0  0  0  0  0  0
    3.9897   -0.9252   -0.5813 C   0  0  0  0  0  0  0  0  0  0  0  0
    3.0510   -0.3229    0.3341 C   0  0  0  0  0  0  0  0  0  0  0  0
    1.7274   -0.5300    0.2581 C   0  0  0  0  0  0  0  0  0  0  0  0
    0.7246    0.0744    1.2011 C   0  0  0  0  0  0  0  0  0  0  0  0
   -0.2215    1.0272    0.4988 C   0  0  0  0  0  0  0  0  0  0  0  0
    0.1369    2.3829    0.3913 C   0  0  0  0  0  0  0  0  0  0  0  0
   -0.6973    3.2892   -0.2600 C   0  0  0  0  0  0  0  0  0  0  0  0
   -1.8924    2.8421   -0.8129 C   0  0  0  0  0  0  0  0  0  0  0  0
   -3.0286    4.0703   -1.6965 Br  0  0  0  0  0  0  0  0  0  0  0  0
   -2.2622    1.4984   -0.7278 C   0  0  0  0  0  0  0  0  0  0  0  0
   -1.4279    0.5825   -0.0781 C   0  0  0  0  0  0  0  0  0  0  0  0
   -1.6912   -0.7556    0.0502 O   0  0  0  0  0  0  0  0  0  0  0  0
   -2.8692   -1.2629   -0.5638 C   0  0  0  0  0  0  0  0  0  0  0  0
   -2.9600   -2.7624   -0.3516 C   0  0  0  0  0  0  0  0  0  0  0  0
   -2.1768   -3.4904    0.2350 O   0  0  0  0  0  0  0  0  0  0  0  0
   -4.0740   -3.2855   -0.9121 O   0  0  0  0  0  0  0  0  0  0  0  0
    5.7576   -0.0852    0.2464 H   0  0  0  0  0  0  0  0  0  0  0  0
    5.9785   -1.1964   -1.2215 H   0  0  0  0  0  0  0  0  0  0  0  0
    3.5952   -1.5737   -1.3610 H   0  0  0  0  0  0  0  0  0  0  0  0
    3.4530    0.3237    1.1111 H   0  0  0  0  0  0  0  0  0  0  0  0
    1.3172   -1.1821   -0.5107 H   0  0  0  0  0  0  0  0  0  0  0  0
    1.2283    0.6092    2.0173 H   0  0  0  0  0  0  0  0  0  0  0  0
    0.1633   -0.7283    1.6944 H   0  0  0  0  0  0  0  0  0  0  0  0
    1.0758    2.7345    0.8147 H   0  0  0  0  0  0  0  0  0  0  0  0
   -0.4048    4.3332   -0.3319 H   0  0  0  0  0  0  0  0  0  0  0  0
   -3.2013    1.1932   -1.1758 H   0  0  0  0  0  0  0  0  0  0  0  0
   -3.7553   -0.8108   -0.1045 H   0  0  0  0  0  0  0  0  0  0  0  0
   -2.8378   -1.0860   -1.6448 H   0  0  0  0  0  0  0  0  0  0  0  0
   -4.0083   -4.2423   -0.7048 H   0  0  0  0  0  0  0  0  0  0  0  0
  1  2  2  0
  2  3  1  0
  3  4  2  3
  4  5  1  0
  5  6  1  0
  6  7  1  0
  7  8  2  0
  8  9  1  0
  9 10  1  0
  9 11  2  0
 11 12  1  0
 12 13  1  0
 13 14  1  0
 14 15  1  0
 15 16  2  0
 15 17  1  0
 12  6  2  0
  1 18  1  0
  1 19  1  0
  2 20  1  0
  3 21  1  0
  4 22  1  0
  5 23  1  0
  5 24  1  0
  7 25  1  0
  8 26  1  0
 11 27  1  0
 14 28  1  0
 14 29  1  0
 17 30  1  0
M  END
>  <Rank>  (13) 
13

>  <Score>  (13) 
0.8340

>  <Pharma_Score>  (13) 
1.0000

>  <QED>  (13) 
0.8200

>  <MW>  (13) 
297.15

>  <LogP>  (13) 
3.20

>  <PSA>  (13) 
46.5

>  <SA_Score>  (13) 
2.57

>  <HBD>  (13) 
1

>  <HBA>  (13) 
2

>  <Lip_Violations>  (13) 
0

>  <SMILES>  (13) 
C=CC=CCc1ccc(Br)cc1OCC(=O)O

$$$$
Candidata_014
     RDKit          3D

 31 31  0  0  0  0  0  0  0  0999 V2000
    5.6812   -0.0035   -1.5788 C   0  0  0  0  0  0  0  0  0  0  0  0
    4.5000    0.2703   -1.0115 C   0  0  0  0  0  0  0  0  0  0  0  0
    3.4485   -0.7125   -0.8811 C   0  0  0  0  0  0  0  0  0  0  0  0
    2.2305   -0.5410   -0.3410 C   0  0  0  0  0  0  0  0  0  0  0  0
    1.6788    0.6778    0.2139 C   0  0  0  0  0  0  0  0  0  0  0  0
    0.4880    0.8119    0.8223 C   0  0  0  0  0  0  0  0  0  0  0  0
   -0.4963   -0.2473    1.1015 C   0  0  0  0  0  0  0  0  0  0  0  0
   -0.1457   -1.3052    1.9548 C   0  0  0  0  0  0  0  0  0  0  0  0
   -1.0652   -2.3101    2.2513 C   0  0  0  0  0  0  0  0  0  0  0  0
   -2.3421   -2.2525    1.7018 C   0  0  0  0  0  0  0  0  0  0  0  0
   -3.5915   -3.6156    2.1025 Br  0  0  0  0  0  0  0  0  0  0  0  0
   -2.7154   -1.1995    0.8632 C   0  0  0  0  0  0  0  0  0  0  0  0
   -1.7982   -0.1863    0.5620 C   0  0  0  0  0  0  0  0  0  0  0  0
   -2.0675    0.8944   -0.2394 O   0  0  0  0  0  0  0  0  0  0  0  0
   -3.3602    0.9859   -0.8217 C   0  0  0  0  0  0  0  0  0  0  0  0
   -3.4857    2.2336   -1.6745 C   0  0  0  0  0  0  0  0  0  0  0  0
   -4.1284    2.3252   -2.7102 O   0  0  0  0  0  0  0  0  0  0  0  0
   -2.8692    3.3185   -1.1639 O   0  0  0  0  0  0  0  0  0  0  0  0
    6.4453    0.7637   -1.6557 H   0  0  0  0  0  0  0  0  0  0  0  0
    5.9193   -0.9840   -1.9785 H   0  0  0  0  0  0  0  0  0  0  0  0
    4.3301    1.2733   -0.6315 H   0  0  0  0  0  0  0  0  0  0  0  0
    3.6809   -1.7066   -1.2635 H   0  0  0  0  0  0  0  0  0  0  0  0
    1.5748   -1.4105   -0.3364 H   0  0  0  0  0  0  0  0  0  0  0  0
    2.2690    1.5835    0.0989 H   0  0  0  0  0  0  0  0  0  0  0  0
    0.1723    1.8045    1.1400 H   0  0  0  0  0  0  0  0  0  0  0  0
    0.8492   -1.3477    2.3940 H   0  0  0  0  0  0  0  0  0  0  0  0
   -0.7766   -3.1248    2.9099 H   0  0  0  0  0  0  0  0  0  0  0  0
   -3.7227   -1.1919    0.4621 H   0  0  0  0  0  0  0  0  0  0  0  0
   -4.1352    1.0433   -0.0492 H   0  0  0  0  0  0  0  0  0  0  0  0
   -3.5293    0.1269   -1.4813 H   0  0  0  0  0  0  0  0  0  0  0  0
   -3.0388    4.0262   -1.8191 H   0  0  0  0  0  0  0  0  0  0  0  0
  1  2  2  0
  2  3  1  0
  3  4  2  3
  4  5  1  0
  5  6  2  3
  6  7  1  0
  7  8  1  0
  8  9  2  0
  9 10  1  0
 10 11  1  0
 10 12  2  0
 12 13  1  0
 13 14  1  0
 14 15  1  0
 15 16  1  0
 16 17  2  0
 16 18  1  0
 13  7  2  0
  1 19  1  0
  1 20  1  0
  2 21  1  0
  3 22  1  0
  4 23  1  0
  5 24  1  0
  6 25  1  0
  8 26  1  0
  9 27  1  0
 12 28  1  0
 15 29  1  0
 15 30  1  0
 18 31  1  0
M  END
>  <Rank>  (14) 
14

>  <Score>  (14) 
0.8300

>  <Pharma_Score>  (14) 
1.0000

>  <QED>  (14) 
0.8160

>  <MW>  (14) 
309.16

>  <LogP>  (14) 
3.67

>  <PSA>  (14) 
46.5

>  <SA_Score>  (14) 
2.64

>  <HBD>  (14) 
1

>  <HBA>  (14) 
2

>  <Lip_Violations>  (14) 
0

>  <SMILES>  (14) 
C=CC=CC=Cc1ccc(Br)cc1OCC(=O)O

$$$$
Candidata_015
     RDKit          3D

 15 15  0  0  0  0  0  0  0  0999 V2000
   -2.4820   -0.2060    0.6496 O   0  0  0  0  0  0  0  0  0  0  0  0
   -1.5491   -0.9749    0.4629 C   0  0  0  0  0  0  0  0  0  0  0  0
   -1.7445   -2.3096    0.5514 O   0  0  0  0  0  0  0  0  0  0  0  0
   -0.1829   -0.6360    0.1499 C   0  0  0  0  0  0  0  0  0  0  0  0
    0.7496   -1.6332    0.0298 O   0  0  0  0  0  0  0  0  0  0  0  0
    1.9371   -1.0518   -0.2635 C   0  0  0  0  0  0  0  0  0  0  0  0
    1.7984    0.3118   -0.3337 C   0  0  0  0  0  0  0  0  0  0  0  0
    0.4253    0.5961   -0.0699 C   0  0  0  0  0  0  0  0  0  0  0  0
   -0.2104    1.9346   -0.0358 C   0  0  0  0  0  0  0  0  0  0  0  0
   -0.8302    2.3700   -1.8280 Br  0  0  0  0  0  0  0  0  0  0  0  0
   -2.6964   -2.3916    0.7578 H   0  0  0  0  0  0  0  0  0  0  0  0
    2.7704   -1.7291   -0.3912 H   0  0  0  0  0  0  0  0  0  0  0  0
    2.5866    1.0187   -0.5556 H   0  0  0  0  0  0  0  0  0  0  0  0
    0.5020    2.7150    0.2459 H   0  0  0  0  0  0  0  0  0  0  0  0
   -1.0740    1.9860    0.6305 H   0  0  0  0  0  0  0  0  0  0  0  0
  1  2  2  0
  2  3  1  0
  2  4  1  0
  4  5  1  0
  5  6  1  0
  6  7  2  0
  7  8  1  0
  8  9  1  0
  9 10  1  0
  8  4  2  0
  3 11  1  0
  6 12  1  0
  7 13  1  0
  9 14  1  0
  9 15  1  0
M  END
>  <Rank>  (15) 
15

>  <Score>  (15) 
0.8070

>  <Pharma_Score>  (15) 
1.0000

>  <QED>  (15) 
0.7490

>  <MW>  (15) 
205.01

>  <LogP>  (15) 
1.87

>  <PSA>  (15) 
50.4

>  <SA_Score>  (15) 
2.64

>  <HBD>  (15) 
1

>  <HBA>  (15) 
2

>  <Lip_Violations>  (15) 
0

>  <SMILES>  (15) 
O=C(O)c1occc1CBr

$$$$
Candidata_016
     RDKit          3D

 18 18  0  0  0  0  0  0  0  0999 V2000
    3.7567   -1.1564   -0.9512 O   0  0  0  0  0  0  0  0  0  0  0  0
    2.7749   -0.5334   -0.4268 C   0  0  0  0  0  0  0  0  0  0  0  0
    2.3538    0.6733   -0.9525 O   0  0  0  0  0  0  0  0  0  0  0  0
    2.0734   -1.1053    0.7607 C   0  0  0  0  0  0  0  0  0  0  0  0
    1.0293   -0.2968    1.2017 O   0  0  0  0  0  0  0  0  0  0  0  0
   -0.0657    0.0850    0.5176 C   0  0  0  0  0  0  0  0  0  0  0  0
   -0.3475   -0.4408   -1.1934 B   0  0  0  0  0  0  0  0  0  0  0  0
   -2.2344   -0.5237   -1.3128 C   0  0  0  0  0  0  0  0  0  0  0  0
   -2.8608    0.3708   -0.5074 C   0  0  0  0  0  0  0  0  0  0  0  0
   -2.3119    1.0193    0.5718 C   0  0  0  0  0  0  0  0  0  0  0  0
   -3.4811    2.2427    1.5184 Br  0  0  0  0  0  0  0  0  0  0  0  0
   -1.0448    0.8796    1.0237 C   0  0  0  0  0  0  0  0  0  0  0  0
    2.9776    1.1938   -1.5794 H   0  0  0  0  0  0  0  0  0  0  0  0
    1.8199   -2.1448    0.5683 H   0  0  0  0  0  0  0  0  0  0  0  0
    2.8503   -1.0923    1.5784 H   0  0  0  0  0  0  0  0  0  0  0  0
   -2.6122   -1.2325   -1.9666 H   0  0  0  0  0  0  0  0  0  0  0  0
   -3.9136    0.5840   -0.7586 H   0  0  0  0  0  0  0  0  0  0  0  0
   -0.7641    1.4775    1.9083 H   0  0  0  0  0  0  0  0  0  0  0  0
  1  2  2  0
  2  3  1  0
  2  4  1  0
  4  5  1  0
  5  6  1  0
  6  7  1  0
  7  8  2  0
  8  9  1  0
  9 10  2  0
 10 11  1  0
 10 12  1  0
 12  6  2  0
  3 13  1  0
  4 14  1  0
  4 15  1  0
  8 16  1  0
  9 17  1  0
 12 18  1  0
M  END
>  <Rank>  (16) 
16

>  <Score>  (16) 
0.8000

>  <Pharma_Score>  (16) 
1.0000

>  <QED>  (16) 
0.8470

>  <MW>  (16) 
228.84

>  <LogP>  (16) 
1.25

>  <PSA>  (16) 
46.5

>  <SA_Score>  (16) 
3.67

>  <HBD>  (16) 
1

>  <HBA>  (16) 
2

>  <Lip_Violations>  (16) 
0

>  <SMILES>  (16) 
O=C(O)COc1bccc(Br)c1

$$$$
Candidata_017
     RDKit          3D

 27 27  0  0  0  0  0  0  0  0999 V2000
    6.2823   -1.2349    0.4304 O   0  0  0  0  0  0  0  0  0  0  0  0
    5.1813   -0.7241    0.5773 C   0  0  0  0  0  0  0  0  0  0  0  0
    5.0804    0.5776    0.9133 O   0  0  0  0  0  0  0  0  0  0  0  0
    3.8531   -1.4498    0.4842 C   0  0  0  0  0  0  0  0  0  0  0  0
    2.8410   -0.6225   -0.0807 O   0  0  0  0  0  0  0  0  0  0  0  0
    1.6132   -1.2289   -0.0879 C   0  0  0  0  0  0  0  0  0  0  0  0
    0.4560   -0.5553   -0.0841 C   0  0  0  0  0  0  0  0  0  0  0  0
    0.3549    0.8880   -0.0455 C   0  0  0  0  0  0  0  0  0  0  0  0
   -0.7790    1.6073   -0.0545 C   0  0  0  0  0  0  0  0  0  0  0  0
   -2.1391    1.0686   -0.1273 C   0  0  0  0  0  0  0  0  0  0  0  0
   -2.6431    0.5630   -1.3308 C   0  0  0  0  0  0  0  0  0  0  0  0
   -3.9422    0.0550   -1.3907 C   0  0  0  0  0  0  0  0  0  0  0  0
   -4.7432    0.0521   -0.2493 C   0  0  0  0  0  0  0  0  0  0  0  0
   -4.2470    0.5570    0.9522 C   0  0  0  0  0  0  0  0  0  0  0  0
   -2.9479    1.0655    1.0136 C   0  0  0  0  0  0  0  0  0  0  0  0
    6.0056    0.8973    0.9346 H   0  0  0  0  0  0  0  0  0  0  0  0
    4.0019   -2.3279   -0.1557 H   0  0  0  0  0  0  0  0  0  0  0  0
    3.5754   -1.7666    1.4964 H   0  0  0  0  0  0  0  0  0  0  0  0
    1.6372   -2.3109   -0.1249 H   0  0  0  0  0  0  0  0  0  0  0  0
   -0.4690   -1.1265   -0.1031 H   0  0  0  0  0  0  0  0  0  0  0  0
    1.2977    1.4323    0.0072 H   0  0  0  0  0  0  0  0  0  0  0  0
   -0.7201    2.6919    0.0005 H   0  0  0  0  0  0  0  0  0  0  0  0
   -2.0257    0.5626   -2.2261 H   0  0  0  0  0  0  0  0  0  0  0  0
   -4.3285   -0.3366   -2.3279 H   0  0  0  0  0  0  0  0  0  0  0  0
   -5.7547   -0.3429   -0.2963 H   0  0  0  0  0  0  0  0  0  0  0  0
   -4.8709    0.5549    1.8421 H   0  0  0  0  0  0  0  0  0  0  0  0
   -2.5694    1.4538    1.9561 H   0  0  0  0  0  0  0  0  0  0  0  0
  1  2  2  0
  2  3  1  0
  2  4  1  0
  4  5  1  0
  5  6  1  0
  6  7  2  3
  7  8  1  0
  8  9  2  3
  9 10  1  0
 10 11  2  0
 11 12  1  0
 12 13  2  0
 13 14  1  0
 14 15  2  0
 15 10  1  0
  3 16  1  0
  4 17  1  0
  4 18  1  0
  6 19  1  0
  7 20  1  0
  8 21  1  0
  9 22  1  0
 11 23  1  0
 12 24  1  0
 13 25  1  0
 14 26  1  0
 15 27  1  0
M  END
>  <Rank>  (17) 
17

>  <Score>  (17) 
0.7580

>  <Pharma_Score>  (17) 
1.0000

>  <QED>  (17) 
0.5910

>  <MW>  (17) 
204.22

>  <LogP>  (17) 
2.31

>  <PSA>  (17) 
46.5

>  <SA_Score>  (17) 
2.46

>  <HBD>  (17) 
1

>  <HBA>  (17) 
2

>  <Lip_Violations>  (17) 
0

>  <SMILES>  (17) 
O=C(O)COC=CC=Cc1ccccc1

$$$$
Candidata_018
     RDKit          3D

 28 28  0  0  0  0  0  0  0  0999 V2000
    5.2517    1.4882    1.3375 C   0  0  0  0  0  0  0  0  0  0  0  0
    3.9466    1.2258    1.2020 C   0  0  0  0  0  0  0  0  0  0  0  0
    3.2301    1.4061   -0.0349 C   0  0  0  0  0  0  0  0  0  0  0  0
    1.9644    1.1230   -0.1337 C   0  0  0  0  0  0  0  0  0  0  0  0
    0.6957    0.8480   -0.2344 C   0  0  0  0  0  0  0  0  0  0  0  0
    0.1226   -0.5144   -0.2113 C   0  0  0  0  0  0  0  0  0  0  0  0
    0.9511   -1.6374   -0.0304 C   0  0  0  0  0  0  0  0  0  0  0  0
    0.4202   -2.9277   -0.0022 C   0  0  0  0  0  0  0  0  0  0  0  0
   -0.9486   -3.1081   -0.1567 C   0  0  0  0  0  0  0  0  0  0  0  0
   -1.6706   -4.8561   -0.1230 Br  0  0  0  0  0  0  0  0  0  0  0  0
   -1.7952   -2.0142   -0.3379 C   0  0  0  0  0  0  0  0  0  0  0  0
   -1.2700   -0.7150   -0.3633 C   0  0  0  0  0  0  0  0  0  0  0  0
   -2.0323    0.4133   -0.5446 O   0  0  0  0  0  0  0  0  0  0  0  0
   -3.4466    0.2721   -0.5569 C   0  0  0  0  0  0  0  0  0  0  0  0
   -4.1351    1.6200   -0.6655 C   0  0  0  0  0  0  0  0  0  0  0  0
   -5.2244    1.8194   -1.1831 O   0  0  0  0  0  0  0  0  0  0  0  0
   -3.4732    2.6339   -0.0734 O   0  0  0  0  0  0  0  0  0  0  0  0
    5.8567    1.8564    0.5151 H   0  0  0  0  0  0  0  0  0  0  0  0
    5.7466    1.3377    2.2920 H   0  0  0  0  0  0  0  0  0  0  0  0
    3.3847    0.8594    2.0596 H   0  0  0  0  0  0  0  0  0  0  0  0
    3.7607    1.7809   -0.9043 H   0  0  0  0  0  0  0  0  0  0  0  0
    0.0011    1.6771   -0.3316 H   0  0  0  0  0  0  0  0  0  0  0  0
    2.0261   -1.5205    0.0918 H   0  0  0  0  0  0  0  0  0  0  0  0
    1.0835   -3.7770    0.1387 H   0  0  0  0  0  0  0  0  0  0  0  0
   -2.8561   -2.2011   -0.4627 H   0  0  0  0  0  0  0  0  0  0  0  0
   -3.7474   -0.3111   -1.4346 H   0  0  0  0  0  0  0  0  0  0  0  0
   -3.8007   -0.1965    0.3682 H   0  0  0  0  0  0  0  0  0  0  0  0
   -4.0418    3.4177   -0.2204 H   0  0  0  0  0  0  0  0  0  0  0  0
  1  2  2  0
  2  3  1  0
  3  4  2  0
  4  5  2  0
  5  6  1  0
  6  7  1  0
  7  8  2  0
  8  9  1  0
  9 10  1  0
  9 11  2  0
 11 12  1  0
 12 13  1  0
 13 14  1  0
 14 15  1  0
 15 16  2  0
 15 17  1  0
 12  6  2  0
  1 18  1  0
  1 19  1  0
  2 20  1  0
  3 21  1  0
  5 22  1  0
  7 23  1  0
  8 24  1  0
 11 25  1  0
 14 26  1  0
 14 27  1  0
 17 28  1  0
M  END
>  <Rank>  (18) 
18

>  <Score>  (18) 
0.7570

>  <Pharma_Score>  (18) 
1.0000

>  <QED>  (18) 
0.6700

>  <MW>  (18) 
295.13

>  <LogP>  (18) 
3.27

>  <PSA>  (18) 
46.5

>  <SA_Score>  (18) 
3.18

>  <HBD>  (18) 
1

>  <HBA>  (18) 
2

>  <Lip_Violations>  (18) 
0

>  <SMILES>  (18) 
C=CC=C=Cc1ccc(Br)cc1OCC(=O)O

$$$$
Candidata_019
     RDKit          3D

 32 32  0  0  0  0  0  0  0  0999 V2000
    6.0423    2.1694    1.5026 C   0  0  0  0  0  0  0  0  0  0  0  0
    5.3384    1.3986    0.7310 C   0  0  0  0  0  0  0  0  0  0  0  0
    4.6352    0.6262   -0.0432 C   0  0  0  0  0  0  0  0  0  0  0  0
    3.2212    0.4319    0.1670 C   0  0  0  0  0  0  0  0  0  0  0  0
    2.4678   -0.3593   -0.6117 C   0  0  0  0  0  0  0  0  0  0  0  0
    1.0504   -0.5479   -0.3959 C   0  0  0  0  0  0  0  0  0  0  0  0
    0.2932   -1.3365   -1.1741 C   0  0  0  0  0  0  0  0  0  0  0  0
   -1.1470   -1.5391   -0.9431 C   0  0  0  0  0  0  0  0  0  0  0  0
   -1.5874   -2.8618   -0.7792 C   0  0  0  0  0  0  0  0  0  0  0  0
   -2.9359   -3.1391   -0.5581 C   0  0  0  0  0  0  0  0  0  0  0  0
   -3.8508   -2.0925   -0.5108 C   0  0  0  0  0  0  0  0  0  0  0  0
   -5.6820   -2.4683   -0.2197 Br  0  0  0  0  0  0  0  0  0  0  0  0
   -3.4362   -0.7701   -0.6834 C   0  0  0  0  0  0  0  0  0  0  0  0
   -2.0829   -0.4828   -0.8979 C   0  0  0  0  0  0  0  0  0  0  0  0
   -1.5885    0.7791   -1.1120 O   0  0  0  0  0  0  0  0  0  0  0  0
   -2.3725    1.8925   -0.7175 C   0  0  0  0  0  0  0  0  0  0  0  0
   -2.6251    2.0380    0.7746 C   0  0  0  0  0  0  0  0  0  0  0  0
   -3.6867    2.3536    1.2903 O   0  0  0  0  0  0  0  0  0  0  0  0
   -1.5338    1.8207    1.5359 O   0  0  0  0  0  0  0  0  0  0  0  0
    6.5287    1.7714    2.3856 H   0  0  0  0  0  0  0  0  0  0  0  0
    6.1499    3.2245    1.2792 H   0  0  0  0  0  0  0  0  0  0  0  0
    5.1216    0.1152   -0.8681 H   0  0  0  0  0  0  0  0  0  0  0  0
    2.7715    0.9657    1.0026 H   0  0  0  0  0  0  0  0  0  0  0  0
    2.9173   -0.8899   -1.4483 H   0  0  0  0  0  0  0  0  0  0  0  0
    0.5971   -0.0145    0.4385 H   0  0  0  0  0  0  0  0  0  0  0  0
    0.7208   -1.8899   -2.0055 H   0  0  0  0  0  0  0  0  0  0  0  0
   -0.8767   -3.6852   -0.8125 H   0  0  0  0  0  0  0  0  0  0  0  0
   -3.2584   -4.1685   -0.4268 H   0  0  0  0  0  0  0  0  0  0  0  0
   -4.1891    0.0104   -0.6611 H   0  0  0  0  0  0  0  0  0  0  0  0
   -1.8308    2.7936   -1.0276 H   0  0  0  0  0  0  0  0  0  0  0  0
   -3.3232    1.9123   -1.2619 H   0  0  0  0  0  0  0  0  0  0  0  0
   -1.8483    1.9420    2.4557 H   0  0  0  0  0  0  0  0  0  0  0  0
  1  2  2  0
  2  3  2  0
  3  4  1  0
  4  5  2  3
  5  6  1  0
  6  7  2  3
  7  8  1  0
  8  9  1  0
  9 10  2  0
 10 11  1  0
 11 12  1  0
 11 13  2  0
 13 14  1  0
 14 15  1  0
 15 16  1  0
 16 17  1  0
 17 18  2  0
 17 19  1  0
 14  8  2  0
  1 20  1  0
  1 21  1  0
  3 22  1  0
  4 23  1  0
  5 24  1  0
  6 25  1  0
  7 26  1  0
  9 27  1  0
 10 28  1  0
 13 29  1  0
 16 30  1  0
 16 31  1  0
 19 32  1  0
M  END
>  <Rank>  (19) 
19

>  <Score>  (19) 
0.7520

>  <Pharma_Score>  (19) 
1.0000

>  <QED>  (19) 
0.6400

>  <MW>  (19) 
321.17

>  <LogP>  (19) 
3.82

>  <PSA>  (19) 
46.5

>  <SA_Score>  (19) 
3.04

>  <HBD>  (19) 
1

>  <HBA>  (19) 
2

>  <Lip_Violations>  (19) 
0

>  <SMILES>  (19) 
C=C=CC=CC=Cc1ccc(Br)cc1OCC(=O)O

$$$$
Candidata_020
     RDKit          3D

 22 22  0  0  0  0  0  0  0  0999 V2000
   -2.6523    0.9418    1.1683 C   0  0  0  0  0  0  0  0  0  0  0  0
   -2.2773    0.0344    0.0559 C   0  0  0  0  0  0  0  0  0  0  0  0
   -3.0822   -0.7604   -0.6729 C   0  0  0  0  0  0  0  0  0  0  0  0
   -2.2969   -1.4759   -1.6599 C   0  0  0  0  0  0  0  0  0  0  0  0
   -1.0071   -1.1251   -1.5423 C   0  0  0  0  0  0  0  0  0  0  0  0
   -0.9284   -0.1612   -0.4602 C   0  0  0  0  0  0  0  0  0  0  0  0
    0.1916    0.4291   -0.0278 C   0  0  0  0  0  0  0  0  0  0  0  0
    1.4228    0.1922   -0.5856 O   0  0  0  0  0  0  0  0  0  0  0  0
    2.4897    0.4425    0.3243 C   0  0  0  0  0  0  0  0  0  0  0  0
    3.8227    0.0586   -0.2908 C   0  0  0  0  0  0  0  0  0  0  0  0
    4.0386   -0.4139   -1.3942 O   0  0  0  0  0  0  0  0  0  0  0  0
    4.8546    0.2993    0.5500 O   0  0  0  0  0  0  0  0  0  0  0  0
   -2.3901    1.9773    0.9287 H   0  0  0  0  0  0  0  0  0  0  0  0
   -2.1372    0.6566    2.0913 H   0  0  0  0  0  0  0  0  0  0  0  0
   -3.7292    0.9078    1.3638 H   0  0  0  0  0  0  0  0  0  0  0  0
   -4.1505   -0.8673   -0.5634 H   0  0  0  0  0  0  0  0  0  0  0  0
   -2.7055   -2.1756   -2.3720 H   0  0  0  0  0  0  0  0  0  0  0  0
   -0.1748   -1.4770   -2.1306 H   0  0  0  0  0  0  0  0  0  0  0  0
    0.1939    1.1525    0.7768 H   0  0  0  0  0  0  0  0  0  0  0  0
    2.5247    1.5113    0.5653 H   0  0  0  0  0  0  0  0  0  0  0  0
    2.3539   -0.1568    1.2325 H   0  0  0  0  0  0  0  0  0  0  0  0
    5.6392    0.0098    0.0367 H   0  0  0  0  0  0  0  0  0  0  0  0
  1  2  1  0
  2  3  2  0
  3  4  1  0
  4  5  2  0
  5  6  1  0
  6  7  2  3
  7  8  1  0
  8  9  1  0
  9 10  1  0
 10 11  2  0
 10 12  1  0
  6  2  1  0
  1 13  1  0
  1 14  1  0
  1 15  1  0
  3 16  1  0
  4 17  1  0
  5 18  1  0
  7 19  1  0
  9 20  1  0
  9 21  1  0
 12 22  1  0
M  END
>  <Rank>  (20) 
20

>  <Score>  (20) 
0.7430

>  <Pharma_Score>  (20) 
1.0000

>  <QED>  (20) 
0.6460

>  <MW>  (20) 
166.18

>  <LogP>  (20) 
1.49

>  <PSA>  (20) 
46.5

>  <SA_Score>  (20) 
3.34

>  <HBD>  (20) 
1

>  <HBA>  (20) 
2

>  <Lip_Violations>  (20) 
0

>  <SMILES>  (20) 
CC1=CC=CC1=COCC(=O)O

$$$$
Candidata_021
     RDKit          3D

 37 37  0  0  0  0  0  0  0  0999 V2000
   -1.7754    2.8781   -0.2178 C   0  0  0  0  0  0  0  0  0  0  0  0
   -1.6936    1.6186   -1.0868 C   0  0  0  0  0  0  0  0  0  0  0  0
   -0.3846    0.8614   -1.0145 C   0  0  0  0  0  0  0  0  0  0  0  0
    0.6519    1.1003   -0.1946 C   0  0  0  0  0  0  0  0  0  0  0  0
    1.8627    0.3088   -0.2160 C   0  0  0  0  0  0  0  0  0  0  0  0
    2.9022    0.5509    0.5979 C   0  0  0  0  0  0  0  0  0  0  0  0
    4.1458   -0.2327    0.5943 C   0  0  0  0  0  0  0  0  0  0  0  0
    4.1503   -1.6266    0.4525 C   0  0  0  0  0  0  0  0  0  0  0  0
    5.3512   -2.3405    0.4846 C   0  0  0  0  0  0  0  0  0  0  0  0
    6.5581   -1.6691    0.6689 C   0  0  0  0  0  0  0  0  0  0  0  0
    6.5651   -0.2850    0.8267 C   0  0  0  0  0  0  0  0  0  0  0  0
    5.3643    0.4288    0.7954 C   0  0  0  0  0  0  0  0  0  0  0  0
   -2.8339    0.6915   -0.7306 C   0  0  0  0  0  0  0  0  0  0  0  0
   -3.8135    0.3658   -1.5881 C   0  0  0  0  0  0  0  0  0  0  0  0
   -4.8904   -0.4534   -1.3971 O   0  0  0  0  0  0  0  0  0  0  0  0
   -5.0291   -1.0668   -0.1206 C   0  0  0  0  0  0  0  0  0  0  0  0
   -6.2666   -1.9410   -0.0550 C   0  0  0  0  0  0  0  0  0  0  0  0
   -6.3685   -2.9846    0.5736 O   0  0  0  0  0  0  0  0  0  0  0  0
   -7.3332   -1.4443   -0.7134 O   0  0  0  0  0  0  0  0  0  0  0  0
   -0.9780    3.5846   -0.4739 H   0  0  0  0  0  0  0  0  0  0  0  0
   -1.6958    2.6453    0.8505 H   0  0  0  0  0  0  0  0  0  0  0  0
   -2.7304    3.3940   -0.3718 H   0  0  0  0  0  0  0  0  0  0  0  0
   -1.8027    1.9465   -2.1298 H   0  0  0  0  0  0  0  0  0  0  0  0
   -0.3066    0.0409   -1.7285 H   0  0  0  0  0  0  0  0  0  0  0  0
    0.6100    1.9113    0.5280 H   0  0  0  0  0  0  0  0  0  0  0  0
    1.9109   -0.5027   -0.9391 H   0  0  0  0  0  0  0  0  0  0  0  0
    2.8722    1.3782    1.3030 H   0  0  0  0  0  0  0  0  0  0  0  0
    3.2191   -2.1736    0.3271 H   0  0  0  0  0  0  0  0  0  0  0  0
    5.3421   -3.4214    0.3711 H   0  0  0  0  0  0  0  0  0  0  0  0
    7.4917   -2.2249    0.6944 H   0  0  0  0  0  0  0  0  0  0  0  0
    7.5046    0.2407    0.9752 H   0  0  0  0  0  0  0  0  0  0  0  0
    5.3903    1.5089    0.9200 H   0  0  0  0  0  0  0  0  0  0  0  0
   -2.8168    0.2923    0.2792 H   0  0  0  0  0  0  0  0  0  0  0  0
   -3.8494    0.7531   -2.6022 H   0  0  0  0  0  0  0  0  0  0  0  0
   -4.1647   -1.7138    0.0695 H   0  0  0  0  0  0  0  0  0  0  0  0
   -5.1220   -0.3094    0.6659 H   0  0  0  0  0  0  0  0  0  0  0  0
   -8.0372   -2.1102   -0.5741 H   0  0  0  0  0  0  0  0  0  0  0  0
  1  2  1  0
  2  3  1  0
  3  4  2  3
  4  5  1  0
  5  6  2  3
  6  7  1  0
  7  8  2  0
  8  9  1  0
  9 10  2  0
 10 11  1  0
 11 12  2  0
  2 13  1  0
 13 14  2  3
 14 15  1  0
 15 16  1  0
 16 17  1  0
 17 18  2  0
 17 19  1  0
 12  7  1  0
  1 20  1  0
  1 21  1  0
  1 22  1  0
  2 23  1  0
  3 24  1  0
  4 25  1  0
  5 26  1  0
  6 27  1  0
  8 28  1  0
  9 29  1  0
 10 30  1  0
 11 31  1  0
 12 32  1  0
 13 33  1  0
 14 34  1  0
 16 35  1  0
 16 36  1  0
 19 37  1  0
M  END
>  <Rank>  (21) 
21

>  <Score>  (21) 
0.7270

>  <Pharma_Score>  (21) 
1.0000

>  <QED>  (21) 
0.6010

>  <MW>  (21) 
258.32

>  <LogP>  (21) 
3.51

>  <PSA>  (21) 
46.5

>  <SA_Score>  (21) 
3.34

>  <HBD>  (21) 
1

>  <HBA>  (21) 
2

>  <Lip_Violations>  (21) 
0

>  <SMILES>  (21) 
CC(C=CC=Cc1ccccc1)C=COCC(=O)O

$$$$
Candidata_022
     RDKit          3D

 28 29  0  0  0  0  0  0  0  0999 V2000
    5.8731   -0.6221   -0.2194 O   0  0  0  0  0  0  0  0  0  0  0  0
    4.8597   -1.2976   -0.1727 C   0  0  0  0  0  0  0  0  0  0  0  0
    4.8393   -2.5923   -0.5376 O   0  0  0  0  0  0  0  0  0  0  0  0
    3.5925   -0.7926    0.2683 C   0  0  0  0  0  0  0  0  0  0  0  0
    2.2981   -0.2751    0.7166 N   0  0  0  0  0  0  0  0  0  0  0  0
    1.0311    0.2187    1.1605 O   0  0  0  0  0  0  0  0  0  0  0  0
    0.5215    1.0621    0.1995 C   0  0  0  0  0  0  0  0  0  0  0  0
    1.3030    2.1119   -0.2999 C   0  0  0  0  0  0  0  0  0  0  0  0
    0.7614    2.9862   -1.2374 C   0  0  0  0  0  0  0  0  0  0  0  0
    1.8143    4.3988   -1.9220 Br  0  0  0  0  0  0  0  0  0  0  0  0
   -0.5523    2.8318   -1.6706 C   0  0  0  0  0  0  0  0  0  0  0  0
   -1.3344    1.7938   -1.1556 C   0  0  0  0  0  0  0  0  0  0  0  0
   -0.8160    0.8917   -0.2078 C   0  0  0  0  0  0  0  0  0  0  0  0
   -1.6689   -0.1907    0.3125 C   0  0  0  0  0  0  0  0  0  0  0  0
   -1.3325   -1.5391    0.1097 C   0  0  0  0  0  0  0  0  0  0  0  0
   -2.1478   -2.5644    0.5958 C   0  0  0  0  0  0  0  0  0  0  0  0
   -3.3145   -2.2569    1.2915 C   0  0  0  0  0  0  0  0  0  0  0  0
   -3.6663   -0.9259    1.5020 C   0  0  0  0  0  0  0  0  0  0  0  0
   -2.8503    0.0986    1.0153 C   0  0  0  0  0  0  0  0  0  0  0  0
    5.7635   -2.7726   -0.8051 H   0  0  0  0  0  0  0  0  0  0  0  0
    2.3212    2.2480    0.0533 H   0  0  0  0  0  0  0  0  0  0  0  0
   -0.9797    3.5112   -2.4036 H   0  0  0  0  0  0  0  0  0  0  0  0
   -2.3594    1.6838   -1.5065 H   0  0  0  0  0  0  0  0  0  0  0  0
   -0.4266   -1.7999   -0.4343 H   0  0  0  0  0  0  0  0  0  0  0  0
   -1.8697   -3.6020    0.4307 H   0  0  0  0  0  0  0  0  0  0  0  0
   -3.9478   -3.0543    1.6713 H   0  0  0  0  0  0  0  0  0  0  0  0
   -4.5743   -0.6831    2.0478 H   0  0  0  0  0  0  0  0  0  0  0  0
   -3.1381    1.1321    1.1978 H   0  0  0  0  0  0  0  0  0  0  0  0
  1  2  2  0
  2  3  1  0
  2  4  1  0
  4  5  3  0
  5  6  1  0
  6  7  1  0
  7  8  1  0
  8  9  2  0
  9 10  1  0
  9 11  1  0
 11 12  2  0
 12 13  1  0
 13 14  1  0
 14 15  2  0
 15 16  1  0
 16 17  2  0
 17 18  1  0
 18 19  2  0
 13  7  2  0
 19 14  1  0
  3 20  1  0
  8 21  1  0
 11 22  1  0
 12 23  1  0
 15 24  1  0
 16 25  1  0
 17 26  1  0
 18 27  1  0
 19 28  1  0
M  CHG  1   5   1
M  END
>  <Rank>  (22) 
22

>  <Score>  (22) 
0.7180

>  <Pharma_Score>  (22) 
1.0000

>  <QED>  (22) 
0.5200

>  <MW>  (22) 
319.13

>  <LogP>  (22) 
3.83

>  <PSA>  (22) 
50.9

>  <SA_Score>  (22) 
2.84

>  <HBD>  (22) 
1

>  <HBA>  (22) 
2

>  <Lip_Violations>  (22) 
0

>  <SMILES>  (22) 
O=C(O)C#[N+]Oc1cc(Br)ccc1-c1ccccc1

$$$$
Candidata_023
     RDKit          3D

 21 21  0  0  0  0  0  0  0  0999 V2000
   -1.2010   -1.7439   -0.4577 C   0  0  0  0  0  0  0  0  0  0  0  0
   -0.7051   -0.3185   -0.1849 C   0  0  0  0  0  0  0  0  0  0  0  0
    0.8061   -0.2673   -0.2741 C   0  0  0  0  0  0  0  0  0  0  0  0
    1.6656    0.1729    0.6619 C   0  0  0  0  0  0  0  0  0  0  0  0
    3.1262    0.1943    0.4965 C   0  0  0  0  0  0  0  0  0  0  0  0
    3.9072    0.5974    1.3396 O   0  0  0  0  0  0  0  0  0  0  0  0
    3.5495   -0.2824   -0.6838 O   0  0  0  0  0  0  0  0  0  0  0  0
   -1.3222    0.6639   -1.1602 C   0  0  0  0  0  0  0  0  0  0  0  0
   -2.0792    1.5567   -0.5051 C   0  0  0  0  0  0  0  0  0  0  0  0
   -2.0533    1.2653    0.9030 C   0  0  0  0  0  0  0  0  0  0  0  0
   -1.2776    0.1932    1.1227 C   0  0  0  0  0  0  0  0  0  0  0  0
   -2.2956   -1.8098   -0.4189 H   0  0  0  0  0  0  0  0  0  0  0  0
   -0.8042   -2.4502    0.2819 H   0  0  0  0  0  0  0  0  0  0  0  0
   -0.8899   -2.0935   -1.4498 H   0  0  0  0  0  0  0  0  0  0  0  0
    1.2119   -0.6283   -1.2194 H   0  0  0  0  0  0  0  0  0  0  0  0
    1.3290    0.5582    1.6174 H   0  0  0  0  0  0  0  0  0  0  0  0
    4.5235   -0.1959   -0.6312 H   0  0  0  0  0  0  0  0  0  0  0  0
   -1.1694    0.6439   -2.2294 H   0  0  0  0  0  0  0  0  0  0  0  0
   -2.6345    2.3699   -0.9473 H   0  0  0  0  0  0  0  0  0  0  0  0
   -2.5918    1.8288    1.6499 H   0  0  0  0  0  0  0  0  0  0  0  0
   -1.0953   -0.2547    2.0888 H   0  0  0  0  0  0  0  0  0  0  0  0
  1  2  1  0
  2  3  1  0
  3  4  2  3
  4  5  1  0
  5  6  2  0
  5  7  1  0
  2  8  1  0
  8  9  2  0
  9 10  1  0
 10 11  2  0
 11  2  1  0
  1 12  1  0
  1 13  1  0
  1 14  1  0
  3 15  1  0
  4 16  1  0
  7 17  1  0
  8 18  1  0
  9 19  1  0
 10 20  1  0
 11 21  1  0
M  END
>  <Rank>  (23) 
23

>  <Score>  (23) 
0.7160

>  <Pharma_Score>  (23) 
1.0000

>  <QED>  (23) 
0.6090

>  <MW>  (23) 
150.18

>  <LogP>  (23) 
1.76

>  <PSA>  (23) 
37.3

>  <SA_Score>  (23) 
3.67

>  <HBD>  (23) 
1

>  <HBA>  (23) 
1

>  <Lip_Violations>  (23) 
0

>  <SMILES>  (23) 
CC1(C=CC(=O)O)C=CC=C1

$$$$
Candidata_024
     RDKit          3D

 25 25  0  0  0  0  0  0  0  0999 V2000
    4.9000   -1.5019   -0.3803 O   0  0  0  0  0  0  0  0  0  0  0  0
    4.0522   -0.8001    0.1513 C   0  0  0  0  0  0  0  0  0  0  0  0
    4.1531   -0.4904    1.4591 O   0  0  0  0  0  0  0  0  0  0  0  0
    2.8765   -0.1515   -0.5545 C   0  0  0  0  0  0  0  0  0  0  0  0
    1.7376   -0.0511    0.2965 O   0  0  0  0  0  0  0  0  0  0  0  0
    0.6341    0.4524   -0.3454 C   0  0  0  0  0  0  0  0  0  0  0  0
   -0.6221    0.2070    0.0730 C   0  0  0  0  0  0  0  0  0  0  0  0
   -0.8442   -0.7053    1.2798 C   0  0  0  0  0  0  0  0  0  0  0  0
   -2.2135   -1.3274    1.3347 C   0  0  0  0  0  0  0  0  0  0  0  0
   -2.4233   -2.7321    2.5455 Br  0  0  0  0  0  0  0  0  0  0  0  0
   -3.2171   -0.8959    0.5614 C   0  0  0  0  0  0  0  0  0  0  0  0
   -3.0275    0.2182   -0.3369 C   0  0  0  0  0  0  0  0  0  0  0  0
   -1.8222    0.7704   -0.5925 C   0  0  0  0  0  0  0  0  0  0  0  0
   -1.6024    1.9437   -1.5237 C   0  0  0  0  0  0  0  0  0  0  0  0
   -3.1818    3.0141   -1.9113 Br  0  0  0  0  0  0  0  0  0  0  0  0
    4.9473   -0.9741    1.7666 H   0  0  0  0  0  0  0  0  0  0  0  0
    2.6286   -0.7752   -1.4219 H   0  0  0  0  0  0  0  0  0  0  0  0
    3.1955    0.8435   -0.8854 H   0  0  0  0  0  0  0  0  0  0  0  0
    0.8791    1.0771   -1.1944 H   0  0  0  0  0  0  0  0  0  0  0  0
   -0.6879   -0.1182    2.1943 H   0  0  0  0  0  0  0  0  0  0  0  0
   -0.0955   -1.5083    1.2673 H   0  0  0  0  0  0  0  0  0  0  0  0
   -4.2042   -1.3461    0.6056 H   0  0  0  0  0  0  0  0  0  0  0  0
   -3.9384    0.5730   -0.8105 H   0  0  0  0  0  0  0  0  0  0  0  0
   -1.2156    1.6091   -2.4910 H   0  0  0  0  0  0  0  0  0  0  0  0
   -0.9081    2.6691   -1.0874 H   0  0  0  0  0  0  0  0  0  0  0  0
  1  2  2  0
  2  3  1  0
  2  4  1  0
  4  5  1  0
  5  6  1  0
  6  7  2  3
  7  8  1  0
  8  9  1  0
  9 10  1  0
  9 11  2  0
 11 12  1  0
 12 13  2  0
 13 14  1  0
 14 15  1  0
 13  7  1  0
  3 16  1  0
  4 17  1  0
  4 18  1  0
  6 19  1  0
  8 20  1  0
  8 21  1  0
 11 22  1  0
 12 23  1  0
 14 24  1  0
 14 25  1  0
M  END
>  <Rank>  (24) 
24

>  <Score>  (24) 
0.7130

>  <Pharma_Score>  (24) 
1.0000

>  <QED>  (24) 
0.6330

>  <MW>  (24) 
338.00

>  <LogP>  (24) 
2.98

>  <PSA>  (24) 
46.5

>  <SA_Score>  (24) 
3.97

>  <HBD>  (24) 
1

>  <HBA>  (24) 
2

>  <Lip_Violations>  (24) 
0

>  <SMILES>  (24) 
O=C(O)COC=C1CC(Br)=CC=C1CBr

$$$$
Candidata_025
     RDKit          3D

 19 18  0  0  0  0  0  0  0  0999 V2000
   -3.2350   -0.2671    0.4814 C   0  0  0  0  0  0  0  0  0  0  0  0
   -2.3295    0.6165   -0.3602 C   0  0  0  0  0  0  0  0  0  0  0  0
   -2.8764    0.4892   -2.2341 Br  0  0  0  0  0  0  0  0  0  0  0  0
   -0.8920    0.1929   -0.2898 C   0  0  0  0  0  0  0  0  0  0  0  0
    0.0865    1.0011    0.1462 C   0  0  0  0  0  0  0  0  0  0  0  0
    1.4245    0.7501    0.2637 O   0  0  0  0  0  0  0  0  0  0  0  0
    1.8935   -0.5281   -0.1504 C   0  0  0  0  0  0  0  0  0  0  0  0
    3.3947   -0.6545    0.0247 C   0  0  0  0  0  0  0  0  0  0  0  0
    3.9910   -1.6757    0.3346 O   0  0  0  0  0  0  0  0  0  0  0  0
    4.0833    0.4697   -0.2573 O   0  0  0  0  0  0  0  0  0  0  0  0
   -3.1747   -1.3200    0.1816 H   0  0  0  0  0  0  0  0  0  0  0  0
   -4.2823    0.0418    0.3894 H   0  0  0  0  0  0  0  0  0  0  0  0
   -2.9621   -0.2053    1.5407 H   0  0  0  0  0  0  0  0  0  0  0  0
   -2.4634    1.6683   -0.0870 H   0  0  0  0  0  0  0  0  0  0  0  0
   -0.6761   -0.8225   -0.6084 H   0  0  0  0  0  0  0  0  0  0  0  0
   -0.1025    2.0190    0.4752 H   0  0  0  0  0  0  0  0  0  0  0  0
    1.4287   -1.3048    0.4680 H   0  0  0  0  0  0  0  0  0  0  0  0
    1.6721   -0.6979   -1.2101 H   0  0  0  0  0  0  0  0  0  0  0  0
    5.0198    0.2273   -0.1063 H   0  0  0  0  0  0  0  0  0  0  0  0
  1  2  1  0
  2  3  1  0
  2  4  1  0
  4  5  2  3
  5  6  1  0
  6  7  1  0
  7  8  1  0
  8  9  2  0
  8 10  1  0
  1 11  1  0
  1 12  1  0
  1 13  1  0
  2 14  1  0
  4 15  1  0
  5 16  1  0
  7 17  1  0
  7 18  1  0
 10 19  1  0
M  END
>  <Rank>  (25) 
25

>  <Score>  (25) 
0.6870

>  <Pharma_Score>  (25) 
1.0000

>  <QED>  (25) 
0.5620

>  <MW>  (25) 
209.04

>  <LogP>  (25) 
1.38

>  <PSA>  (25) 
46.5

>  <SA_Score>  (25) 
3.99

>  <HBD>  (25) 
1

>  <HBA>  (25) 
2

>  <Lip_Violations>  (25) 
0

>  <SMILES>  (25) 
CC(Br)C=COCC(=O)O

$$$$
Candidata_026
     RDKit          3D

 27 27  0  0  0  0  0  0  0  0999 V2000
   -3.1722   -2.1610    2.6072 O   0  0  0  0  0  0  0  0  0  0  0  0
   -2.3972   -1.9704    1.6812 C   0  0  0  0  0  0  0  0  0  0  0  0
   -1.6796   -2.9961    1.1807 O   0  0  0  0  0  0  0  0  0  0  0  0
   -2.1969   -0.6498    0.9626 C   0  0  0  0  0  0  0  0  0  0  0  0
   -0.8872   -0.5467    0.4249 O   0  0  0  0  0  0  0  0  0  0  0  0
   -0.5456    0.5873   -0.2752 C   0  0  0  0  0  0  0  0  0  0  0  0
   -1.3306    1.6611   -0.4883 C   0  0  0  0  0  0  0  0  0  0  0  0
   -0.9493    2.8386   -1.2431 C   0  0  0  0  0  0  0  0  0  0  0  0
   -2.3289    3.9443   -1.8546 Br  0  0  0  0  0  0  0  0  0  0  0  0
    0.3372    3.1644   -1.4337 C   0  0  0  0  0  0  0  0  0  0  0  0
    1.4714    2.3247   -0.9471 C   0  0  0  0  0  0  0  0  0  0  0  0
    1.0791    0.5507   -1.0504 S   0  0  0  0  0  3  0  0  0  0  0  0
    2.0697   -0.0027    0.3293 C   0  0  0  0  0  0  0  0  0  0  0  0
    2.3234   -1.3099    0.4991 C   0  0  0  0  0  0  0  0  0  0  0  0
    1.8623   -2.4684   -0.3300 C   0  0  0  0  0  0  0  0  0  0  0  0
    3.2775   -3.4261   -0.8342 Cl  0  0  0  0  0  0  0  0  0  0  0  0
   -1.9348   -3.7640    1.7329 H   0  0  0  0  0  0  0  0  0  0  0  0
   -2.9468   -0.5954    0.1657 H   0  0  0  0  0  0  0  0  0  0  0  0
   -2.3527    0.1456    1.7002 H   0  0  0  0  0  0  0  0  0  0  0  0
   -2.3304    1.6990   -0.0683 H   0  0  0  0  0  0  0  0  0  0  0  0
    0.5987    4.0756   -1.9643 H   0  0  0  0  0  0  0  0  0  0  0  0
    1.7473    2.6228    0.0692 H   0  0  0  0  0  0  0  0  0  0  0  0
    2.3406    2.4811   -1.5946 H   0  0  0  0  0  0  0  0  0  0  0  0
    2.4815    0.6920    1.0577 H   0  0  0  0  0  0  0  0  0  0  0  0
    2.9223   -1.5863    1.3657 H   0  0  0  0  0  0  0  0  0  0  0  0
    1.3212   -2.1894   -1.2355 H   0  0  0  0  0  0  0  0  0  0  0  0
    1.2200   -3.1209    0.2683 H   0  0  0  0  0  0  0  0  0  0  0  0
  1  2  2  0
  2  3  1  0
  2  4  1  0
  4  5  1  0
  5  6  1  0
  6  7  2  0
  7  8  1  0
  8  9  1  0
  8 10  2  0
 10 11  1  0
 11 12  1  0
 12 13  1  0
 13 14  2  3
 14 15  1  0
 15 16  1  0
 12  6  1  0
  3 17  1  0
  4 18  1  0
  4 19  1  0
  7 20  1  0
 10 21  1  0
 11 22  1  0
 11 23  1  0
 13 24  1  0
 14 25  1  0
 15 26  1  0
 15 27  1  0
M  CHG  1  12  -1
M  END
>  <Rank>  (26) 
26

>  <Score>  (26) 
0.6840

>  <Pharma_Score>  (26) 
1.0000

>  <QED>  (26) 
0.6240

>  <MW>  (26) 
326.62

>  <LogP>  (26) 
2.59

>  <PSA>  (26) 
46.5

>  <SA_Score>  (26) 
4.61

>  <HBD>  (26) 
1

>  <HBA>  (26) 
3

>  <Lip_Violations>  (26) 
0

>  <SMILES>  (26) 
O=C(O)COC1=CC(Br)=CC[S-]1C=CCCl

$$$$
Candidata_027
     RDKit          3D

 17 16  0  0  0  0  0  0  0  0999 V2000
   -3.7835    1.0829   -0.9996 O   0  0  0  0  0  0  0  0  0  0  0  0
   -3.0275    0.7761   -0.0882 C   0  0  0  0  0  0  0  0  0  0  0  0
   -3.4938    0.7523    1.1790 O   0  0  0  0  0  0  0  0  0  0  0  0
   -1.5826    0.3406   -0.2295 C   0  0  0  0  0  0  0  0  0  0  0  0
   -0.7862    0.8990    0.8116 O   0  0  0  0  0  0  0  0  0  0  0  0
    0.5434    0.5585    0.8153 C   0  0  0  0  0  0  0  0  0  0  0  0
    1.2122   -0.2349   -0.0373 C   0  0  0  0  0  0  0  0  0  0  0  0
    2.6304   -0.5893   -0.0140 C   0  0  0  0  0  0  0  0  0  0  0  0
    3.7379    0.1373    1.3299 Br  0  0  0  0  0  0  0  0  0  0  0  0
    3.1603   -1.4262   -0.9402 C   0  0  0  0  0  0  0  0  0  0  0  0
    2.6721   -2.0447   -1.9277 O   0  0  0  0  0  0  0  0  0  0  0  0
   -4.4214    1.0476    1.0903 H   0  0  0  0  0  0  0  0  0  0  0  0
   -1.2256    0.7017   -1.2009 H   0  0  0  0  0  0  0  0  0  0  0  0
   -1.5671   -0.7546   -0.1942 H   0  0  0  0  0  0  0  0  0  0  0  0
    1.0139    1.0484    1.6591 H   0  0  0  0  0  0  0  0  0  0  0  0
    0.6877   -0.7027   -0.8674 H   0  0  0  0  0  0  0  0  0  0  0  0
    4.2300   -1.5919   -0.7901 H   0  0  0  0  0  0  0  0  0  0  0  0
  1  2  2  0
  2  3  1  0
  2  4  1  0
  4  5  1  0
  5  6  1  0
  6  7  2  3
  7  8  1  0
  8  9  1  0
  8 10  2  3
 10 11  1  0
  3 12  1  0
  4 13  1  0
  4 14  1  0
  6 15  1  0
  7 16  1  0
 10 17  1  0
M  CHG  1  11  -1
M  END
>  <Rank>  (27) 
27

>  <Score>  (27) 
0.6750

>  <Pharma_Score>  (27) 
1.0000

>  <QED>  (27) 
0.5440

>  <MW>  (27) 
222.01

>  <LogP>  (27) 
0.20

>  <PSA>  (27) 
69.6

>  <SA_Score>  (27) 
4.13

>  <HBD>  (27) 
1

>  <HBA>  (27) 
3

>  <Lip_Violations>  (27) 
0

>  <SMILES>  (27) 
O=C(O)COC=CC(Br)=C[O-]

$$$$
Candidata_028
     RDKit          3D

 28 28  0  0  0  0  0  0  0  0999 V2000
    4.2100    1.4432   -0.4551 C   0  0  0  0  0  0  0  0  0  0  0  0
    3.1176    0.8839    0.0789 C   0  0  0  0  0  0  0  0  0  0  0  0
    2.7146   -0.4714   -0.2118 C   0  0  0  0  0  0  0  0  0  0  0  0
    1.6339   -1.1059    0.2708 C   0  0  0  0  0  0  0  0  0  0  0  0
    0.5857   -0.5844    1.2150 C   0  0  0  0  0  0  0  0  0  0  0  0
   -0.8227   -0.7828    0.6806 C   0  0  0  0  0  0  0  0  0  0  0  0
   -1.5243   -1.9394    1.0757 C   0  0  0  0  0  0  0  0  0  0  0  0
   -2.8175   -2.1881    0.6180 C   0  0  0  0  0  0  0  0  0  0  0  0
   -3.4246   -1.2836   -0.2434 C   0  0  0  0  0  0  0  0  0  0  0  0
   -5.1807   -1.6122   -0.8619 Br  0  0  0  0  0  0  0  0  0  0  0  0
   -2.7482   -0.1361   -0.6542 C   0  0  0  0  0  0  0  0  0  0  0  0
   -1.4365    0.1317   -0.2119 C   0  0  0  0  0  0  0  0  0  0  0  0
   -0.7258    1.3952   -0.6618 C   0  0  0  0  0  0  0  0  0  0  0  0
   -0.6973    2.3404    0.3870 O   0  0  0  0  0  0  0  0  0  0  0  0
   -1.3890    2.0191   -1.7426 O   0  0  0  0  0  0  0  0  0  0  0  0
    4.8604    0.9088   -1.1402 H   0  0  0  0  0  0  0  0  0  0  0  0
    4.4792    2.4662   -0.2103 H   0  0  0  0  0  0  0  0  0  0  0  0
    2.5138    1.4800    0.7579 H   0  0  0  0  0  0  0  0  0  0  0  0
    3.3617   -1.0292   -0.8893 H   0  0  0  0  0  0  0  0  0  0  0  0
    1.4889   -2.1389   -0.0462 H   0  0  0  0  0  0  0  0  0  0  0  0
    0.7321    0.4655    1.4809 H   0  0  0  0  0  0  0  0  0  0  0  0
    0.6870   -1.1276    2.1639 H   0  0  0  0  0  0  0  0  0  0  0  0
   -1.0605   -2.6584    1.7491 H   0  0  0  0  0  0  0  0  0  0  0  0
   -3.3383   -3.0862    0.9389 H   0  0  0  0  0  0  0  0  0  0  0  0
   -3.2426    0.5593   -1.3309 H   0  0  0  0  0  0  0  0  0  0  0  0
    0.2920    1.1682   -0.9876 H   0  0  0  0  0  0  0  0  0  0  0  0
   -1.5049    2.1842    0.9045 H   0  0  0  0  0  0  0  0  0  0  0  0
   -0.7643    2.6985   -2.0446 H   0  0  0  0  0  0  0  0  0  0  0  0
  1  2  2  0
  2  3  1  0
  3  4  2  3
  4  5  1  0
  5  6  1  0
  6  7  1  0
  7  8  2  0
  8  9  1  0
  9 10  1  0
  9 11  2  0
 11 12  1  0
 12 13  1  0
 13 14  1  0
 13 15  1  0
 12  6  2  0
  1 16  1  0
  1 17  1  0
  2 18  1  0
  3 19  1  0
  4 20  1  0
  5 21  1  0
  5 22  1  0
  7 23  1  0
  8 24  1  0
 11 25  1  0
 13 26  1  0
 14 27  1  0
 15 28  1  0
M  END
>  <Rank>  (28) 
28

>  <Score>  (28) 
0.6450

>  <Pharma_Score>  (28) 
0.7500

>  <QED>  (28) 
0.6510

>  <MW>  (28) 
269.14

>  <LogP>  (28) 
2.72

>  <PSA>  (28) 
40.5

>  <SA_Score>  (28) 
3.02

>  <HBD>  (28) 
2

>  <HBA>  (28) 
2

>  <Lip_Violations>  (28) 
0

>  <SMILES>  (28) 
C=CC=CCc1ccc(Br)cc1C(O)O

$$$$
Candidata_029
     RDKit          3D

 13 12  0  0  0  0  0  0  0  0999 V2000
    2.4985    1.0220   -0.1967 C   0  0  0  0  0  0  0  0  0  0  0  0
    1.5622    0.0790   -0.3048 C   0  0  0  0  0  0  0  0  0  0  0  0
    0.2320    0.3831   -0.2213 O   0  0  0  0  0  0  0  0  0  0  0  0
   -0.5813   -0.7642    0.0049 C   0  0  0  0  0  0  0  0  0  0  0  0
   -2.0429   -0.3920    0.1613 C   0  0  0  0  0  0  0  0  0  0  0  0
   -2.9913   -1.0460   -0.2478 O   0  0  0  0  0  0  0  0  0  0  0  0
   -2.2549    0.7323    0.8742 O   0  0  0  0  0  0  0  0  0  0  0  0
    3.5517    0.7772   -0.2741 H   0  0  0  0  0  0  0  0  0  0  0  0
    2.2249    2.0588   -0.0298 H   0  0  0  0  0  0  0  0  0  0  0  0
    1.8037   -0.9610   -0.4813 H   0  0  0  0  0  0  0  0  0  0  0  0
   -0.5036   -1.4390   -0.8561 H   0  0  0  0  0  0  0  0  0  0  0  0
   -0.2707   -1.2862    0.9177 H   0  0  0  0  0  0  0  0  0  0  0  0
   -3.2283    0.8359    0.8852 H   0  0  0  0  0  0  0  0  0  0  0  0
  1  2  2  0
  2  3  1  0
  3  4  1  0
  4  5  1  0
  5  6  2  0
  5  7  1  0
  1  8  1  0
  1  9  1  0
  2 10  1  0
  4 11  1  0
  4 12  1  0
  7 13  1  0
M  END
>  <Rank>  (29) 
29

>  <Score>  (29) 
0.6050

>  <Pharma_Score>  (29) 
0.7500

>  <QED>  (29) 
0.5190

>  <MW>  (29) 
102.09

>  <LogP>  (29) 
0.23

>  <PSA>  (29) 
46.5

>  <SA_Score>  (29) 
2.85

>  <HBD>  (29) 
1

>  <HBA>  (29) 
2

>  <Lip_Violations>  (29) 
0

>  <SMILES>  (29) 
C=COCC(=O)O

$$$$
Candidata_030
     RDKit          3D

 28 29  0  0  0  0  0  0  0  0999 V2000
   -0.0287   -2.9868    2.5057 O   0  0  0  0  0  0  0  0  0  0  0  0
   -1.2044   -1.8144    2.3641 P   0  0  0  0  0  4  0  0  0  0  0  0
   -0.7971   -1.2965    0.7595 C   0  0  0  0  0  0  0  0  0  0  0  0
    0.2905   -1.7961   -0.1779 C   0  0  0  0  0  0  0  0  0  0  0  0
    1.4697   -0.8546   -0.2314 C   0  0  0  0  0  0  0  0  0  0  0  0
    1.6079    0.0625   -1.2823 C   0  0  0  0  0  0  0  0  0  0  0  0
    2.6849    0.9499   -1.3082 C   0  0  0  0  0  0  0  0  0  0  0  0
    3.6314    0.9297   -0.2855 C   0  0  0  0  0  0  0  0  0  0  0  0
    3.5029    0.0222    0.7640 C   0  0  0  0  0  0  0  0  0  0  0  0
    2.4269   -0.8656    0.7924 C   0  0  0  0  0  0  0  0  0  0  0  0
   -1.6541   -0.2095    0.2309 C   0  0  0  0  0  0  0  0  0  0  0  0
   -1.3603    1.1226    0.5439 C   0  0  0  0  0  0  0  0  0  0  0  0
   -2.1539    2.1427    0.0201 C   0  0  0  0  0  0  0  0  0  0  0  0
   -3.2291    1.8318   -0.8150 C   0  0  0  0  0  0  0  0  0  0  0  0
   -3.5055    0.4998   -1.1285 C   0  0  0  0  0  0  0  0  0  0  0  0
   -4.9567    0.0885   -2.2679 Br  0  0  0  0  0  0  0  0  0  0  0  0
   -2.7208   -0.5299   -0.6134 C   0  0  0  0  0  0  0  0  0  0  0  0
    0.6356   -2.7922    0.1199 H   0  0  0  0  0  0  0  0  0  0  0  0
   -0.1336   -1.9251   -1.1818 H   0  0  0  0  0  0  0  0  0  0  0  0
    0.8773    0.0938   -2.0875 H   0  0  0  0  0  0  0  0  0  0  0  0
    2.7868    1.6562   -2.1280 H   0  0  0  0  0  0  0  0  0  0  0  0
    4.4716    1.6187   -0.3078 H   0  0  0  0  0  0  0  0  0  0  0  0
    4.2418    0.0022    1.5610 H   0  0  0  0  0  0  0  0  0  0  0  0
    2.3396   -1.5710    1.6180 H   0  0  0  0  0  0  0  0  0  0  0  0
   -0.5127    1.3716    1.1795 H   0  0  0  0  0  0  0  0  0  0  0  0
   -1.9319    3.1807    0.2575 H   0  0  0  0  0  0  0  0  0  0  0  0
   -3.8417    2.6343   -1.2194 H   0  0  0  0  0  0  0  0  0  0  0  0
   -2.9364   -1.5653   -0.8633 H   0  0  0  0  0  0  0  0  0  0  0  0
  1  2  2  0
  2  3  2  0
  3  4  1  0
  4  5  1  0
  5  6  2  0
  6  7  1  0
  7  8  2  0
  8  9  1  0
  9 10  2  0
  3 11  1  0
 11 12  2  0
 12 13  1  0
 13 14  2  0
 14 15  1  0
 15 16  1  0
 15 17  2  0
 10  5  1  0
 17 11  1  0
  4 18  1  0
  4 19  1  0
  6 20  1  0
  7 21  1  0
  8 22  1  0
  9 23  1  0
 10 24  1  0
 12 25  1  0
 13 26  1  0
 14 27  1  0
 17 28  1  0
M  CHG  1   2  -1
M  END
>  <Rank>  (30) 
30

>  <Score>  (30) 
0.5840

>  <Pharma_Score>  (30) 
0.5000

>  <QED>  (30) 
0.7630

>  <MW>  (30) 
306.12

>  <LogP>  (30) 
4.50

>  <PSA>  (30) 
17.1

>  <SA_Score>  (30) 
2.69

>  <HBD>  (30) 
0

>  <HBA>  (30) 
1

>  <Lip_Violations>  (30) 
0

>  <SMILES>  (30) 
O=[P-]=C(Cc1ccccc1)c1cccc(Br)c1

$$$$
Candidata_031
     RDKit          3D

  7  6  0  0  0  0  0  0  0  0999 V2000
   -1.4749   -0.3774    1.2323 O   0  0  0  0  0  0  0  0  0  0  0  0
   -1.1101   -0.0211    0.1239 C   0  0  0  0  0  0  0  0  0  0  0  0
    0.3581    0.0845   -0.2776 C   0  0  0  0  0  0  0  0  0  0  0  0
    0.7092    0.4410   -1.3857 O   0  0  0  0  0  0  0  0  0  0  0  0
    1.2150   -0.2470    0.6896 O   0  0  0  0  0  0  0  0  0  0  0  0
   -1.8037    0.2558   -0.6850 H   0  0  0  0  0  0  0  0  0  0  0  0
    2.1064   -0.1360    0.3024 H   0  0  0  0  0  0  0  0  0  0  0  0
  1  2  2  0
  2  3  1  0
  3  4  2  0
  3  5  1  0
  2  6  1  0
  5  7  1  0
M  END
>  <Rank>  (31) 
31

>  <Score>  (31) 
0.5580

>  <Pharma_Score>  (31) 
0.7500

>  <QED>  (31) 
0.3290

>  <MW>  (31) 
74.03

>  <LogP>  (31) 
-0.73

>  <PSA>  (31) 
54.4

>  <SA_Score>  (31) 
2.37

>  <HBD>  (31) 
1

>  <HBA>  (31) 
2

>  <Lip_Violations>  (31) 
0

>  <SMILES>  (31) 
O=CC(=O)O

$$$$
Candidata_032
     RDKit          3D

 12 11  0  0  0  0  0  0  0  0999 V2000
    3.8619    0.9680   -0.7138 O   0  0  0  0  0  0  0  0  0  0  0  0
    2.8639    0.3749   -0.5275 C   0  0  0  0  0  0  0  0  0  0  0  0
    1.7782   -0.3010   -0.3147 C   0  0  0  0  0  0  0  0  0  0  0  0
    0.5801    0.3387   -0.4605 O   0  0  0  0  0  0  0  0  0  0  0  0
   -0.5341   -0.5237   -0.2482 C   0  0  0  0  0  0  0  0  0  0  0  0
   -1.8509    0.1983   -0.4631 C   0  0  0  0  0  0  0  0  0  0  0  0
   -2.8773    0.0078    0.1717 O   0  0  0  0  0  0  0  0  0  0  0  0
   -1.8389    1.0653   -1.4943 O   0  0  0  0  0  0  0  0  0  0  0  0
    1.7810   -1.3191    0.0372 H   0  0  0  0  0  0  0  0  0  0  0  0
   -0.5035   -1.3731   -0.9408 H   0  0  0  0  0  0  0  0  0  0  0  0
   -0.5199   -0.8846    0.7872 H   0  0  0  0  0  0  0  0  0  0  0  0
   -2.7404    1.4486   -1.5095 H   0  0  0  0  0  0  0  0  0  0  0  0
  1  2  2  0
  2  3  2  0
  3  4  1  0
  4  5  1  0
  5  6  1  0
  6  7  2  0
  6  8  1  0
  3  9  1  0
  5 10  1  0
  5 11  1  0
  8 12  1  0
M  END
>  <Rank>  (32) 
32

>  <Score>  (32) 
0.5360

>  <Pharma_Score>  (32) 
0.7500

>  <QED>  (32) 
0.3960

>  <MW>  (32) 
116.07

>  <LogP>  (32) 
-0.57

>  <PSA>  (32) 
63.6

>  <SA_Score>  (32) 
3.51

>  <HBD>  (32) 
1

>  <HBA>  (32) 
3

>  <Lip_Violations>  (32) 
0

>  <SMILES>  (32) 
O=C=COCC(=O)O

$$$$
Candidata_033
     RDKit          3D

 10  9  0  0  0  0  0  0  0  0999 V2000
    3.2994    1.5690    0.5140 B   0  0  0  0  0  0  0  0  0  0  0  0
    2.0338   -0.0258    0.3545 C   0  0  0  0  0  0  0  0  0  0  0  0
    1.1725   -1.0776    0.2359 O   0  0  0  0  0  0  0  0  0  0  0  0
   -0.0758   -0.8712   -0.4364 C   0  0  0  0  0  0  0  0  0  0  0  0
   -0.8775    0.1609    0.2413 C   0  0  0  0  0  0  0  0  0  0  0  0
   -0.4462    0.7394    1.2750 O   0  0  0  0  0  0  0  0  0  0  0  0
   -2.1137    0.4790   -0.2842 O   0  0  0  0  0  0  0  0  0  0  0  0
   -0.5800   -1.8294   -0.4735 H   0  0  0  0  0  0  0  0  0  0  0  0
    0.2152   -0.4566   -1.4408 H   0  0  0  0  0  0  0  0  0  0  0  0
   -2.6277    1.3121    0.0143 H   0  0  0  0  0  0  0  0  0  0  0  0
  1  2  3  0
  2  3  1  0
  3  4  1  0
  4  5  1  0
  5  6  2  0
  5  7  1  0
  4  8  1  0
  4  9  1  0
  7 10  1  0
M  END
>  <Rank>  (33) 
33

>  <Score>  (33) 
0.5250

>  <Pharma_Score>  (33) 
0.7500

>  <QED>  (33) 
0.4580

>  <MW>  (33) 
97.87

>  <LogP>  (33) 
-0.83

>  <PSA>  (33) 
46.5

>  <SA_Score>  (33) 
4.33

>  <HBD>  (33) 
1

>  <HBA>  (33) 
2

>  <Lip_Violations>  (33) 
0

>  <SMILES>  (33) 
B#COCC(=O)O

$$$$
Candidata_034
     RDKit          3D

 22 22  0  0  0  0  0  0  0  0999 V2000
    3.9453    0.6737   -2.4211 C   0  0  0  0  0  1  0  0  0  0  0  0
    3.1887   -0.3416   -1.5746 C   0  0  0  0  0  0  0  0  0  0  0  0
    3.0733   -1.4382   -2.0855 O   0  0  0  0  0  0  0  0  0  0  0  0
    2.8065    0.1256   -0.3779 O   0  0  0  0  0  0  0  0  0  0  0  0
    2.0985   -0.8467    0.3763 C   0  0  0  0  0  0  0  0  0  0  0  0
    0.7697   -1.0649   -0.0886 O   0  0  0  0  0  0  0  0  0  0  0  0
   -0.1665   -0.0835    0.1036 C   0  0  0  0  0  0  0  0  0  0  0  0
    0.0784    1.1571    0.6994 C   0  0  0  0  0  0  0  0  0  0  0  0
   -0.9600    2.0803    0.8397 C   0  0  0  0  0  0  0  0  0  0  0  0
   -0.6181    3.7559    1.6492 Br  0  0  0  0  0  0  0  0  0  0  0  0
   -2.2430    1.7844    0.3914 C   0  0  0  0  0  0  0  0  0  0  0  0
   -2.4930    0.5510   -0.2067 C   0  0  0  0  0  0  0  0  0  0  0  0
   -1.4624   -0.3897   -0.3562 C   0  0  0  0  0  0  0  0  0  0  0  0
   -1.7553   -1.7138   -1.0093 C   0  0  0  0  0  0  0  0  0  0  0  0
    2.0943   -0.5477    1.4318 H   0  0  0  0  0  0  0  0  0  0  0  0
    2.6267   -1.8088    0.3547 H   0  0  0  0  0  0  0  0  0  0  0  0
    1.0634    1.4361    1.0570 H   0  0  0  0  0  0  0  0  0  0  0  0
   -3.0509    2.5033    0.4993 H   0  0  0  0  0  0  0  0  0  0  0  0
   -3.4983    0.3272   -0.5580 H   0  0  0  0  0  0  0  0  0  0  0  0
   -1.1454   -1.8345   -1.9105 H   0  0  0  0  0  0  0  0  0  0  0  0
   -1.5457   -2.5335   -0.3145 H   0  0  0  0  0  0  0  0  0  0  0  0
   -2.8063   -1.7918   -1.3069 H   0  0  0  0  0  0  0  0  0  0  0  0
  1  2  1  0
  2  3  2  0
  2  4  1  0
  4  5  1  0
  5  6  1  0
  6  7  1  0
  7  8  1  0
  8  9  2  0
  9 10  1  0
  9 11  1  0
 11 12  2  0
 12 13  1  0
 13 14  1  0
 13  7  2  0
  5 15  1  0
  5 16  1  0
  8 17  1  0
 11 18  1  0
 12 19  1  0
 14 20  1  0
 14 21  1  0
 14 22  1  0
M  CHG  1   1   1
M  RAD  1   1   3
M  END
>  <Rank>  (34) 
34

>  <Score>  (34) 
0.4740

>  <Pharma_Score>  (34) 
0.5000

>  <QED>  (34) 
0.4720

>  <MW>  (34) 
256.07

>  <LogP>  (34) 
2.23

>  <PSA>  (34) 
35.5

>  <SA_Score>  (34) 
2.90

>  <HBD>  (34) 
0

>  <HBA>  (34) 
3

>  <Lip_Violations>  (34) 
0

>  <SMILES>  (34) 
[C+]C(=O)OCOc1cc(Br)ccc1C

$$$$
Candidata_035
     RDKit          3D

 11 10  0  0  0  0  0  0  0  0999 V2000
   -1.7344   -0.0230    0.2921 C   0  0  0  0  0  0  0  0  0  0  0  0
   -0.3526   -0.3510   -0.1735 C   0  0  0  0  0  0  0  0  0  0  0  0
    0.7228    0.3880    0.1327 C   0  0  0  0  0  0  0  0  0  0  0  0
    2.0622    0.0089   -0.3597 C   0  0  0  0  0  0  0  0  0  0  0  0
    3.0527    0.6753   -0.0872 O   0  0  0  0  0  0  0  0  0  0  0  0
   -2.1331   -0.8503    0.8871 H   0  0  0  0  0  0  0  0  0  0  0  0
   -2.3914    0.1294   -0.5697 H   0  0  0  0  0  0  0  0  0  0  0  0
   -1.7606    0.8829    0.9059 H   0  0  0  0  0  0  0  0  0  0  0  0
   -0.2568   -1.2422   -0.7898 H   0  0  0  0  0  0  0  0  0  0  0  0
    0.6740    1.2825    0.7429 H   0  0  0  0  0  0  0  0  0  0  0  0
    2.1172   -0.9004   -0.9809 H   0  0  0  0  0  0  0  0  0  0  0  0
  1  2  1  0
  2  3  2  3
  3  4  1  0
  4  5  2  0
  1  6  1  0
  1  7  1  0
  1  8  1  0
  2  9  1  0
  3 10  1  0
  4 11  1  0
M  END
>  <Rank>  (35) 
35

>  <Score>  (35) 
0.4010

>  <Pharma_Score>  (35) 
0.5000

>  <QED>  (35) 
0.3290

>  <MW>  (35) 
70.09

>  <LogP>  (35) 
0.76

>  <PSA>  (35) 
17.1

>  <SA_Score>  (35) 
3.48

>  <HBD>  (35) 
0

>  <HBA>  (35) 
1

>  <Lip_Violations>  (35) 
0

>  <SMILES>  (35) 
CC=CC=O

$$$$
Candidata_036
     RDKit          3D

 16 16  0  0  0  0  0  0  0  0999 V2000
    3.8636    1.7667    1.0479 P   0  0  0  0  0  2  0  0  0  0  0  0
    2.9212    0.3662    0.1918 B   0  0  0  0  0  0  0  0  0  0  0  0
    1.7468   -0.7367   -0.6150 C   0  0  0  0  0  0  0  0  0  0  0  0
    0.3589   -0.3315   -0.2706 C   0  0  0  0  0  0  0  0  0  0  0  0
   -0.2381   -0.8785    0.8432 C   0  0  0  0  0  0  0  0  0  0  0  0
   -1.5242   -0.5235    1.1898 C   0  0  0  0  0  0  0  0  0  0  0  0
   -2.2019    0.3929    0.3959 C   0  0  0  0  0  0  0  0  0  0  0  0
   -1.6119    0.9476   -0.7237 C   0  0  0  0  0  0  0  0  0  0  0  0
   -0.3084    0.5723   -1.0543 C   0  0  0  0  0  0  0  0  0  0  0  0
    2.0195   -1.7251   -0.2135 H   0  0  0  0  0  0  0  0  0  0  0  0
    1.9166   -0.6666   -1.7092 H   0  0  0  0  0  0  0  0  0  0  0  0
    0.3082   -1.5858    1.4410 H   0  0  0  0  0  0  0  0  0  0  0  0
   -2.0062   -0.9474    2.0654 H   0  0  0  0  0  0  0  0  0  0  0  0
   -3.2202    0.6713    0.6738 H   0  0  0  0  0  0  0  0  0  0  0  0
   -2.1649    1.6621   -1.3270 H   0  0  0  0  0  0  0  0  0  0  0  0
    0.1408    1.0161   -1.9356 H   0  0  0  0  0  0  0  0  0  0  0  0
  1  2  2  0
  2  3  1  0
  3  4  1  0
  4  5  2  0
  5  6  1  0
  6  7  2  0
  7  8  1  0
  8  9  2  0
  9  4  1  0
  3 10  1  0
  3 11  1  0
  5 12  1  0
  6 13  1  0
  7 14  1  0
  8 15  1  0
  9 16  1  0
M  CHG  1   1   1
M  RAD  1   1   3
M  END
>  <Rank>  (36) 
36

>  <Score>  (36) 
0.3350

>  <Pharma_Score>  (36) 
0.2500

>  <QED>  (36) 
0.4280

>  <MW>  (36) 
132.92

>  <LogP>  (36) 
2.22

>  <PSA>  (36) 
0.0

>  <SA_Score>  (36) 
3.17

>  <HBD>  (36) 
0

>  <HBA>  (36) 
0

>  <Lip_Violations>  (36) 
0

>  <SMILES>  (36) 
[P+]=BCc1ccccc1

$$$$
Candidata_037
     RDKit          3D

  7  6  0  0  0  0  0  0  0  0999 V2000
   -0.6315   -0.1556    0.0231 C   0  0  0  0  0  0  0  0  0  0  0  0
    0.8201    0.2087   -0.0310 C   0  0  0  0  0  0  0  0  0  0  0  0
    1.7271   -0.6073    0.0954 O   0  0  0  0  0  0  0  0  0  0  0  0
   -1.1042    0.1179   -0.9231 H   0  0  0  0  0  0  0  0  0  0  0  0
   -0.7425   -1.2302    0.1878 H   0  0  0  0  0  0  0  0  0  0  0  0
   -1.1064    0.3888    0.8425 H   0  0  0  0  0  0  0  0  0  0  0  0
    1.0374    1.2777   -0.1948 H   0  0  0  0  0  0  0  0  0  0  0  0
  1  2  1  0
  2  3  2  0
  1  4  1  0
  1  5  1  0
  1  6  1  0
  2  7  1  0
M  END
>  <Rank>  (37) 
37

>  <Score>  (37) 
0.3150

>  <Pharma_Score>  (37) 
0.2500

>  <QED>  (37) 
0.3550

>  <MW>  (37) 
44.05

>  <LogP>  (37) 
0.21

>  <PSA>  (37) 
17.1

>  <SA_Score>  (37) 
3.04

>  <HBD>  (37) 
0

>  <HBA>  (37) 
1

>  <Lip_Violations>  (37) 
0

>  <SMILES>  (37) 
CC=O

$$$$
