Candidata_001
     RDKit          3D

 28 29  0  0  0  0  0  0  0  0999 V2000
   -1.5909   -0.4401   -2.5824 O   0  0  0  0  0  0  0  0  0  0  0  0
   -1.5490   -0.7589   -1.4089 C   0  0  0  0  0  0  0  0  0  0  0  0
   -1.4164   -2.0421   -1.0353 O   0  0  0  0  0  0  0  0  0  0  0  0
   -1.7687    0.1481   -0.2600 C   0  0  0  0  0  0  0  0  0  0  0  0
   -2.7589    1.1268   -0.4451 C   0  0  0  0  0  0  0  0  0  0  0  0
   -3.0544    2.0219    0.5782 C   0  0  0  0  0  0  0  0  0  0  0  0
   -4.3969    3.3282    0.3262 Br  0  0  0  0  0  0  0  0  0  0  0  0
   -2.3693    1.9607    1.7869 C   0  0  0  0  0  0  0  0  0  0  0  0
   -1.3703    1.0022    1.9694 C   0  0  0  0  0  0  0  0  0  0  0  0
   -1.0445    0.0860    0.9494 C   0  0  0  0  0  0  0  0  0  0  0  0
    0.0936   -0.8853    1.1960 C   0  0  0  0  0  0  0  0  0  0  0  0
    1.3107   -0.6738    0.3213 C   0  0  0  0  0  0  0  0  0  0  0  0
    1.8598   -1.7491   -0.3925 C   0  0  0  0  0  0  0  0  0  0  0  0
    2.9926   -1.5703   -1.1883 C   0  0  0  0  0  0  0  0  0  0  0  0
    3.5954   -0.3173   -1.2726 C   0  0  0  0  0  0  0  0  0  0  0  0
    3.0691    0.7564   -0.5579 C   0  0  0  0  0  0  0  0  0  0  0  0
    1.9367    0.5792    0.2389 C   0  0  0  0  0  0  0  0  0  0  0  0
   -1.3288   -2.5172   -1.8882 H   0  0  0  0  0  0  0  0  0  0  0  0
   -3.2972    1.1792   -1.3897 H   0  0  0  0  0  0  0  0  0  0  0  0
   -2.5970    2.6577    2.5897 H   0  0  0  0  0  0  0  0  0  0  0  0
   -0.8339    0.9832    2.9171 H   0  0  0  0  0  0  0  0  0  0  0  0
   -0.2859   -1.9100    1.1114 H   0  0  0  0  0  0  0  0  0  0  0  0
    0.4332   -0.8073    2.2381 H   0  0  0  0  0  0  0  0  0  0  0  0
    1.4043   -2.7353   -0.3360 H   0  0  0  0  0  0  0  0  0  0  0  0
    3.4052   -2.4092   -1.7425 H   0  0  0  0  0  0  0  0  0  0  0  0
    4.4759   -0.1776   -1.8940 H   0  0  0  0  0  0  0  0  0  0  0  0
    3.5403    1.7338   -0.6211 H   0  0  0  0  0  0  0  0  0  0  0  0
    1.5451    1.4301    0.7919 H   0  0  0  0  0  0  0  0  0  0  0  0
  1  2  2  0
  2  3  1  0
  2  4  1  0
  4  5  1  0
  5  6  2  0
  6  7  1  0
  6  8  1  0
  8  9  2  0
  9 10  1  0
 10 11  1  0
 11 12  1  0
 12 13  2  0
 13 14  1  0
 14 15  2  0
 15 16  1  0
 16 17  2  0
 10  4  2  0
 17 12  1  0
  3 18  1  0
  5 19  1  0
  8 20  1  0
  9 21  1  0
 11 22  1  0
 11 23  1  0
 13 24  1  0
 14 25  1  0
 15 26  1  0
 16 27  1  0
 17 28  1  0
M  END
>  <Rank>  (1) 
1

>  <Score>  (1) 
0.9110

>  <Pharma_Score>  (1) 
1.0000

>  <QED>  (1) 
0.9350

>  <MW>  (1) 
291.14

>  <LogP>  (1) 
3.74

>  <PSA>  (1) 
37.3

>  <SA_Score>  (1) 
1.66

>  <HBD>  (1) 
1

>  <HBA>  (1) 
1

>  <Lip_Violations>  (1) 
0

>  <SMILES>  (1) 
O=C(O)c1cc(Br)ccc1Cc1ccccc1

$$$$
Candidata_002
     RDKit          3D

 30 31  0  0  0  0  0  0  0  0999 V2000
   -0.6180    0.0231   -2.5622 N   0  0  0  0  0  0  0  0  0  0  0  0
   -0.1466   -0.4646   -1.2523 C   0  0  0  0  0  0  0  0  0  0  0  0
   -1.3050   -0.3525   -0.2651 C   0  0  0  0  0  0  0  0  0  0  0  0
   -1.6264    0.8635    0.3623 C   0  0  0  0  0  0  0  0  0  0  0  0
   -2.7061    0.9458    1.2433 C   0  0  0  0  0  0  0  0  0  0  0  0
   -3.4862   -0.1795    1.4997 C   0  0  0  0  0  0  0  0  0  0  0  0
   -3.1916   -1.3882    0.8732 C   0  0  0  0  0  0  0  0  0  0  0  0
   -2.1118   -1.4738   -0.0071 C   0  0  0  0  0  0  0  0  0  0  0  0
    1.1479    0.2075   -0.7819 C   0  0  0  0  0  0  0  0  0  0  0  0
    1.7388    1.2473   -1.5332 C   0  0  0  0  0  0  0  0  0  0  0  0
    2.8900    1.9086   -1.0939 C   0  0  0  0  0  0  0  0  0  0  0  0
    3.4786    1.5447    0.1103 C   0  0  0  0  0  0  0  0  0  0  0  0
    5.0259    2.4474    0.7113 Br  0  0  0  0  0  0  0  0  0  0  0  0
    2.9381    0.5145    0.8705 C   0  0  0  0  0  0  0  0  0  0  0  0
    1.7929   -0.1666    0.4220 C   0  0  0  0  0  0  0  0  0  0  0  0
    1.3321   -1.2596    1.3073 C   0  0  0  0  0  0  0  0  0  0  0  0
    1.3210   -1.2307    2.5235 O   0  0  0  0  0  0  0  0  0  0  0  0
    1.0279   -2.3763    0.6269 O   0  0  0  0  0  0  0  0  0  0  0  0
   -1.0165    0.9514   -2.4271 H   0  0  0  0  0  0  0  0  0  0  0  0
   -1.4050   -0.5604   -2.8442 H   0  0  0  0  0  0  0  0  0  0  0  0
    0.0981   -1.5203   -1.4172 H   0  0  0  0  0  0  0  0  0  0  0  0
   -1.0342    1.7568    0.1744 H   0  0  0  0  0  0  0  0  0  0  0  0
   -2.9375    1.8893    1.7314 H   0  0  0  0  0  0  0  0  0  0  0  0
   -4.3250   -0.1136    2.1878 H   0  0  0  0  0  0  0  0  0  0  0  0
   -3.8034   -2.2646    1.0707 H   0  0  0  0  0  0  0  0  0  0  0  0
   -1.8974   -2.4253   -0.4897 H   0  0  0  0  0  0  0  0  0  0  0  0
    1.3073    1.5595   -2.4828 H   0  0  0  0  0  0  0  0  0  0  0  0
    3.3122    2.7056   -1.7010 H   0  0  0  0  0  0  0  0  0  0  0  0
    3.4051    0.2269    1.8108 H   0  0  0  0  0  0  0  0  0  0  0  0
    0.7947   -3.0160    1.3325 H   0  0  0  0  0  0  0  0  0  0  0  0
  1  2  1  0
  2  3  1  0
  3  4  2  0
  4  5  1  0
  5  6  2  0
  6  7  1  0
  7  8  2  0
  2  9  1  0
  9 10  1  0
 10 11  2  0
 11 12  1  0
 12 13  1  0
 12 14  2  0
 14 15  1  0
 15 16  1  0
 16 17  2  0
 16 18  1  0
  8  3  1  0
 15  9  2  0
  1 19  1  0
  1 20  1  0
  2 21  1  0
  4 22  1  0
  5 23  1  0
  6 24  1  0
  7 25  1  0
  8 26  1  0
 10 27  1  0
 11 28  1  0
 14 29  1  0
 18 30  1  0
M  END
>  <Rank>  (2) 
2

>  <Score>  (2) 
0.8750

>  <Pharma_Score>  (2) 
1.0000

>  <QED>  (2) 
0.9150

>  <MW>  (2) 
306.16

>  <LogP>  (2) 
3.20

>  <PSA>  (2) 
63.3

>  <SA_Score>  (2) 
2.39

>  <HBD>  (2) 
2

>  <HBA>  (2) 
2

>  <Lip_Violations>  (2) 
0

>  <SMILES>  (2) 
NC(c1ccccc1)c1ccc(Br)cc1C(=O)O

$$$$
Candidata_003
     RDKit          3D

 18 18  0  0  0  0  0  0  0  0999 V2000
   -0.1748    3.0367    0.1307 O   0  0  0  0  0  0  0  0  0  0  0  0
   -0.5542    1.9618   -0.2945 C   0  0  0  0  0  0  0  0  0  0  0  0
   -1.6331    1.8654   -1.0860 O   0  0  0  0  0  0  0  0  0  0  0  0
    0.1442    0.6670   -0.1127 C   0  0  0  0  0  0  0  0  0  0  0  0
    1.5474    0.7424   -0.0864 C   0  0  0  0  0  0  0  0  0  0  0  0
    2.3068   -0.4109    0.0829 C   0  0  0  0  0  0  0  0  0  0  0  0
    4.1933   -0.3002    0.1053 Br  0  0  0  0  0  0  0  0  0  0  0  0
    1.6859   -1.6448    0.2377 C   0  0  0  0  0  0  0  0  0  0  0  0
    0.2915   -1.7243    0.2300 C   0  0  0  0  0  0  0  0  0  0  0  0
   -0.5064   -0.5747    0.0574 C   0  0  0  0  0  0  0  0  0  0  0  0
   -1.9994   -0.7397    0.1181 C   0  0  0  0  0  0  0  0  0  0  0  0
   -2.6619   -0.1028    1.8319 Br  0  0  0  0  0  0  0  0  0  0  0  0
   -1.9572    2.7892   -1.1505 H   0  0  0  0  0  0  0  0  0  0  0  0
    2.0398    1.7067   -0.2001 H   0  0  0  0  0  0  0  0  0  0  0  0
    2.2742   -2.5488    0.3758 H   0  0  0  0  0  0  0  0  0  0  0  0
   -0.1723   -2.6996    0.3747 H   0  0  0  0  0  0  0  0  0  0  0  0
   -2.2890   -1.7947    0.0680 H   0  0  0  0  0  0  0  0  0  0  0  0
   -2.5349   -0.2286   -0.6823 H   0  0  0  0  0  0  0  0  0  0  0  0
  1  2  2  0
  2  3  1  0
  2  4  1  0
  4  5  1  0
  5  6  2  0
  6  7  1  0
  6  8  1  0
  8  9  2  0
  9 10  1  0
 10 11  1  0
 11 12  1  0
 10  4  2  0
  3 13  1  0
  5 14  1  0
  8 15  1  0
  9 16  1  0
 11 17  1  0
 11 18  1  0
M  END
>  <Rank>  (3) 
3

>  <Score>  (3) 
0.8640

>  <Pharma_Score>  (3) 
1.0000

>  <QED>  (3) 
0.8510

>  <MW>  (3) 
293.94

>  <LogP>  (3) 
3.04

>  <PSA>  (3) 
37.3

>  <SA_Score>  (3) 
2.09

>  <HBD>  (3) 
1

>  <HBA>  (3) 
1

>  <Lip_Violations>  (3) 
0

>  <SMILES>  (3) 
O=C(O)c1cc(Br)ccc1CBr

$$$$
Candidata_004
     RDKit          3D

 26 26  0  0  0  0  0  0  0  0999 V2000
    4.5035    0.7173   -0.8788 C   0  0  0  0  0  0  0  0  0  0  0  0
    3.2995    0.1586   -0.7065 C   0  0  0  0  0  0  0  0  0  0  0  0
    2.6851    0.0163    0.5916 C   0  0  0  0  0  0  0  0  0  0  0  0
    1.4836   -0.5229    0.8542 C   0  0  0  0  0  0  0  0  0  0  0  0
    0.4926   -1.1254   -0.1024 C   0  0  0  0  0  0  0  0  0  0  0  0
   -0.7510   -0.2734   -0.2558 C   0  0  0  0  0  0  0  0  0  0  0  0
   -0.7254    0.7551   -1.2199 C   0  0  0  0  0  0  0  0  0  0  0  0
   -1.8331    1.5772   -1.4291 C   0  0  0  0  0  0  0  0  0  0  0  0
   -2.9827    1.3862   -0.6719 C   0  0  0  0  0  0  0  0  0  0  0  0
   -4.4846    2.4998   -0.9511 Br  0  0  0  0  0  0  0  0  0  0  0  0
   -3.0329    0.3866    0.2964 C   0  0  0  0  0  0  0  0  0  0  0  0
   -1.9206   -0.4462    0.5154 C   0  0  0  0  0  0  0  0  0  0  0  0
   -2.0094   -1.4733    1.5888 C   0  0  0  0  0  0  0  0  0  0  0  0
   -1.0971   -1.9362    2.2446 O   0  0  0  0  0  0  0  0  0  0  0  0
   -3.2748   -1.8924    1.7776 O   0  0  0  0  0  0  0  0  0  0  0  0
    4.9332    0.8056   -1.8718 H   0  0  0  0  0  0  0  0  0  0  0  0
    5.0900    1.0971   -0.0481 H   0  0  0  0  0  0  0  0  0  0  0  0
    2.7678   -0.2009   -1.5821 H   0  0  0  0  0  0  0  0  0  0  0  0
    3.2596    0.3905    1.4392 H   0  0  0  0  0  0  0  0  0  0  0  0
    1.1756   -0.5566    1.9000 H   0  0  0  0  0  0  0  0  0  0  0  0
    0.9322   -1.2806   -1.0945 H   0  0  0  0  0  0  0  0  0  0  0  0
    0.2353   -2.1389    0.2237 H   0  0  0  0  0  0  0  0  0  0  0  0
    0.1713    0.9216   -1.8155 H   0  0  0  0  0  0  0  0  0  0  0  0
   -1.7848    2.3614   -2.1804 H   0  0  0  0  0  0  0  0  0  0  0  0
   -3.9353    0.2608    0.8906 H   0  0  0  0  0  0  0  0  0  0  0  0
   -3.1973   -2.5659    2.4858 H   0  0  0  0  0  0  0  0  0  0  0  0
  1  2  2  0
  2  3  1  0
  3  4  2  3
  4  5  1  0
  5  6  1  0
  6  7  1  0
  7  8  2  0
  8  9  1  0
  9 10  1  0
  9 11  2  0
 11 12  1  0
 12 13  1  0
 13 14  2  0
 13 15  1  0
 12  6  2  0
  1 16  1  0
  1 17  1  0
  2 18  1  0
  3 19  1  0
  4 20  1  0
  5 21  1  0
  5 22  1  0
  7 23  1  0
  8 24  1  0
 11 25  1  0
 15 26  1  0
M  END
>  <Rank>  (4) 
4

>  <Score>  (4) 
0.8430

>  <Pharma_Score>  (4) 
1.0000

>  <QED>  (4) 
0.8480

>  <MW>  (4) 
267.12

>  <LogP>  (4) 
3.43

>  <PSA>  (4) 
37.3

>  <SA_Score>  (4) 
2.60

>  <HBD>  (4) 
1

>  <HBA>  (4) 
1

>  <Lip_Violations>  (4) 
0

>  <SMILES>  (4) 
C=CC=CCc1ccc(Br)cc1C(=O)O

$$$$
Candidata_005
     RDKit          3D

 29 30  0  0  0  0  0  0  0  0999 V2000
    1.5660   -1.0426    3.8510 O   0  0  0  0  0  0  0  0  0  0  0  0
    1.9292   -0.5690    2.7868 C   0  0  0  0  0  0  0  0  0  0  0  0
    3.0344    0.1797    2.7058 O   0  0  0  0  0  0  0  0  0  0  0  0
    1.1847   -0.7422    1.5328 C   0  0  0  0  0  0  0  0  0  0  0  0
    1.6058   -0.4680    0.2857 C   0  0  0  0  0  0  0  0  0  0  0  0
    2.8999    0.0277    0.0901 O   0  0  0  0  0  0  0  0  0  0  0  0
    3.3901    0.2863   -1.1804 C   0  0  0  0  0  0  0  0  0  0  0  0
    5.1371    0.9376   -1.2970 Br  0  0  0  0  0  0  0  0  0  0  0  0
    2.6491    0.0772   -2.2760 C   0  0  0  0  0  0  0  0  0  0  0  0
    1.3085   -0.4219   -2.1384 C   0  0  0  0  0  0  0  0  0  0  0  0
    0.7838   -0.6785   -0.9239 C   0  0  0  0  0  0  0  0  0  0  0  0
   -0.6377   -1.2073   -0.8277 C   0  0  0  0  0  0  0  0  0  0  0  0
   -1.6476   -0.2425   -0.2381 C   0  0  0  0  0  0  0  0  0  0  0  0
   -1.7144    1.0950   -0.6565 C   0  0  0  0  0  0  0  0  0  0  0  0
   -2.6677    1.9618   -0.1185 C   0  0  0  0  0  0  0  0  0  0  0  0
   -3.5740    1.5003    0.8332 C   0  0  0  0  0  0  0  0  0  0  0  0
   -3.5322    0.1702    1.2439 C   0  0  0  0  0  0  0  0  0  0  0  0
   -2.5797   -0.6981    0.7074 C   0  0  0  0  0  0  0  0  0  0  0  0
    3.3848    0.1962    3.6191 H   0  0  0  0  0  0  0  0  0  0  0  0
    0.2032   -1.1596    1.7184 H   0  0  0  0  0  0  0  0  0  0  0  0
    3.0279    0.2769   -3.2722 H   0  0  0  0  0  0  0  0  0  0  0  0
    0.7392   -0.5715   -3.0515 H   0  0  0  0  0  0  0  0  0  0  0  0
   -1.0118   -1.4889   -1.8218 H   0  0  0  0  0  0  0  0  0  0  0  0
   -0.6249   -2.1441   -0.2549 H   0  0  0  0  0  0  0  0  0  0  0  0
   -1.0219    1.4780   -1.4027 H   0  0  0  0  0  0  0  0  0  0  0  0
   -2.7029    2.9983   -0.4440 H   0  0  0  0  0  0  0  0  0  0  0  0
   -4.3150    2.1763    1.2516 H   0  0  0  0  0  0  0  0  0  0  0  0
   -4.2433   -0.1924    1.9818 H   0  0  0  0  0  0  0  0  0  0  0  0
   -2.5706   -1.7348    1.0373 H   0  0  0  0  0  0  0  0  0  0  0  0
  1  2  2  0
  2  3  1  0
  2  4  1  0
  4  5  2  3
  5  6  1  0
  6  7  1  0
  7  8  1  0
  7  9  2  0
  9 10  1  0
 10 11  2  0
 11 12  1  0
 12 13  1  0
 13 14  2  0
 14 15  1  0
 15 16  2  0
 16 17  1  0
 17 18  2  0
 11  5  1  0
 18 13  1  0
  3 19  1  0
  4 20  1  0
  9 21  1  0
 10 22  1  0
 12 23  1  0
 12 24  1  0
 14 25  1  0
 15 26  1  0
 16 27  1  0
 17 28  1  0
 18 29  1  0
M  END
>  <Rank>  (5) 
5

>  <Score>  (5) 
0.8310

>  <Pharma_Score>  (5) 
1.0000

>  <QED>  (5) 
0.8710

>  <MW>  (5) 
307.14

>  <LogP>  (5) 
3.39

>  <PSA>  (5) 
46.5

>  <SA_Score>  (5) 
3.10

>  <HBD>  (5) 
1

>  <HBA>  (5) 
2

>  <Lip_Violations>  (5) 
0

>  <SMILES>  (5) 
O=C(O)C=C1OC(Br)=CC=C1Cc1ccccc1

$$$$
Candidata_006
     RDKit          3D

 30 31  0  0  0  0  0  0  0  0999 V2000
    1.2734    2.2837    0.8037 C   0  0  0  0  0  1  0  0  0  0  0  0
    1.7993    0.8273    0.7147 C   0  0  0  0  0  0  0  0  0  0  0  0
    2.7446    0.4483    1.6785 C   0  0  0  0  0  0  0  0  0  0  0  0
    3.3328   -0.8156    1.6432 C   0  0  0  0  0  0  0  0  0  0  0  0
    2.9859   -1.7041    0.6329 C   0  0  0  0  0  0  0  0  0  0  0  0
    2.0442   -1.3330   -0.3297 C   0  0  0  0  0  0  0  0  0  0  0  0
    1.4150   -0.0678   -0.2990 C   0  0  0  0  0  0  0  0  0  0  0  0
    0.3839    0.2522   -1.3780 C   0  0  0  0  0  0  0  0  0  0  0  0
    0.8985    1.2963   -2.2823 N   0  0  0  0  0  0  0  0  0  0  0  0
   -1.0319    0.5277   -0.8534 C   0  0  0  0  0  0  0  0  0  0  0  0
   -1.6120    1.8103   -0.9712 C   0  0  0  0  0  0  0  0  0  0  0  0
   -2.8827    2.0951   -0.4614 C   0  0  0  0  0  0  0  0  0  0  0  0
   -3.6096    1.0990    0.1753 C   0  0  0  0  0  0  0  0  0  0  0  0
   -5.3267    1.4811    0.8655 Br  0  0  0  0  0  0  0  0  0  0  0  0
   -3.0835   -0.1815    0.2970 C   0  0  0  0  0  0  0  0  0  0  0  0
   -1.8061   -0.4724   -0.2172 C   0  0  0  0  0  0  0  0  0  0  0  0
   -1.3438   -1.8760   -0.1106 C   0  0  0  0  0  0  0  0  0  0  0  0
   -0.7593   -2.5184   -0.9603 O   0  0  0  0  0  0  0  0  0  0  0  0
   -1.6357   -2.3991    1.0936 O   0  0  0  0  0  0  0  0  0  0  0  0
    3.0334    1.1497    2.4580 H   0  0  0  0  0  0  0  0  0  0  0  0
    4.0661   -1.0980    2.3947 H   0  0  0  0  0  0  0  0  0  0  0  0
    3.4466   -2.6890    0.5895 H   0  0  0  0  0  0  0  0  0  0  0  0
    1.7915   -2.0511   -1.1107 H   0  0  0  0  0  0  0  0  0  0  0  0
    0.2825   -0.6156   -2.0405 H   0  0  0  0  0  0  0  0  0  0  0  0
    1.1171    2.1207   -1.7174 H   0  0  0  0  0  0  0  0  0  0  0  0
    1.7865    0.9851   -2.6715 H   0  0  0  0  0  0  0  0  0  0  0  0
   -1.0731    2.6205   -1.4594 H   0  0  0  0  0  0  0  0  0  0  0  0
   -3.2857    3.0993   -0.5666 H   0  0  0  0  0  0  0  0  0  0  0  0
   -3.6669   -0.9616    0.7808 H   0  0  0  0  0  0  0  0  0  0  0  0
   -1.2842   -3.3129    1.0569 H   0  0  0  0  0  0  0  0  0  0  0  0
  1  2  1  0
  2  3  2  0
  3  4  1  0
  4  5  2  0
  5  6  1  0
  6  7  2  0
  7  8  1  0
  8  9  1  0
  8 10  1  0
 10 11  1  0
 11 12  2  0
 12 13  1  0
 13 14  1  0
 13 15  2  0
 15 16  1  0
 16 17  1  0
 17 18  2  0
 17 19  1  0
  7  2  1  0
 16 10  2  0
  3 20  1  0
  4 21  1  0
  5 22  1  0
  6 23  1  0
  8 24  1  0
  9 25  1  0
  9 26  1  0
 11 27  1  0
 12 28  1  0
 15 29  1  0
 19 30  1  0
M  CHG  1   1   1
M  RAD  1   1   3
M  END
>  <Rank>  (6) 
6

>  <Score>  (6) 
0.8160

>  <Pharma_Score>  (6) 
1.0000

>  <QED>  (6) 
0.8550

>  <MW>  (6) 
317.16

>  <LogP>  (6) 
3.13

>  <PSA>  (6) 
63.3

>  <SA_Score>  (6) 
3.32

>  <HBD>  (6) 
2

>  <HBA>  (6) 
2

>  <Lip_Violations>  (6) 
0

>  <SMILES>  (6) 
[C+]c1ccccc1C(N)c1ccc(Br)cc1C(=O)O

$$$$
Candidata_007
     RDKit          3D

 18 18  0  0  0  0  0  0  0  0999 V2000
   -1.0700    2.8390    0.0972 O   0  0  0  0  0  0  0  0  0  0  0  0
   -1.1411    1.6857   -0.2958 C   0  0  0  0  0  0  0  0  0  0  0  0
   -2.1635    1.2764   -1.0710 O   0  0  0  0  0  0  0  0  0  0  0  0
   -0.0826    0.6639   -0.1773 C   0  0  0  0  0  0  0  0  0  0  0  0
    1.2112    1.0730   -0.5369 C   0  0  0  0  0  0  0  0  0  0  0  0
    2.2729    0.1788   -0.4363 C   0  0  0  0  0  0  0  0  0  0  0  0
    4.0137    0.7288   -0.9334 Br  0  0  0  0  0  0  0  0  0  0  0  0
    2.0670   -1.1151    0.0327 C   0  0  0  0  0  0  0  0  0  0  0  0
    0.7834   -1.5159    0.4089 C   0  0  0  0  0  0  0  0  0  0  0  0
   -0.3162   -0.6392    0.3094 C   0  0  0  0  0  0  0  0  0  0  0  0
   -1.6848   -1.1323    0.7863 C   0  0  0  0  0  0  0  0  0  0  0  0
   -1.8739   -0.6386    1.9989 O   0  0  0  0  0  1  0  0  0  0  0  0
   -2.8466    1.9494   -0.8925 H   0  0  0  0  0  0  0  0  0  0  0  0
    1.3724    2.0889   -0.8858 H   0  0  0  0  0  0  0  0  0  0  0  0
    2.8911   -1.8141    0.1307 H   0  0  0  0  0  0  0  0  0  0  0  0
    0.6255   -2.5128    0.8142 H   0  0  0  0  0  0  0  0  0  0  0  0
   -2.3944   -0.8873   -0.0167 H   0  0  0  0  0  0  0  0  0  0  0  0
   -1.6641   -2.2285    0.6676 H   0  0  0  0  0  0  0  0  0  0  0  0
  1  2  2  0
  2  3  1  0
  2  4  1  0
  4  5  1  0
  5  6  2  0
  6  7  1  0
  6  8  1  0
  8  9  2  0
  9 10  1  0
 10 11  1  0
 11 12  1  0
 10  4  2  0
  3 13  1  0
  5 14  1  0
  8 15  1  0
  9 16  1  0
 11 17  1  0
 11 18  1  0
M  CHG  1  12   1
M  RAD  1  12   3
M  END
>  <Rank>  (7) 
7

>  <Score>  (7) 
0.8140

>  <Pharma_Score>  (7) 
1.0000

>  <QED>  (7) 
0.7900

>  <MW>  (7) 
230.04

>  <LogP>  (7) 
2.08

>  <PSA>  (7) 
57.2

>  <SA_Score>  (7) 
2.81

>  <HBD>  (7) 
1

>  <HBA>  (7) 
1

>  <Lip_Violations>  (7) 
0

>  <SMILES>  (7) 
O=C(O)c1cc(Br)ccc1C[O+]

$$$$
Candidata_008
     RDKit          3D

 26 27  0  0  0  0  0  0  0  0999 V2000
   -0.7298   -1.1429    2.3560 O   0  0  0  0  0  0  0  0  0  0  0  0
   -1.7192   -0.8114    1.7339 C   0  0  0  0  0  0  0  0  0  0  0  0
   -2.9527   -1.0424    2.2211 O   0  0  0  0  0  0  0  0  0  0  0  0
   -1.7715   -0.1538    0.4017 C   0  0  0  0  0  0  0  0  0  0  0  0
   -2.8238    0.7486    0.1588 C   0  0  0  0  0  0  0  0  0  0  0  0
   -2.9167    1.4094   -1.0630 C   0  0  0  0  0  0  0  0  0  0  0  0
   -4.3351    2.6202   -1.3712 Br  0  0  0  0  0  0  0  0  0  0  0  0
   -1.9719    1.1867   -2.0566 C   0  0  0  0  0  0  0  0  0  0  0  0
   -0.9256    0.2931   -1.8244 C   0  0  0  0  0  0  0  0  0  0  0  0
   -0.8023   -0.3913   -0.5960 C   0  0  0  0  0  0  0  0  0  0  0  0
    0.3567   -1.3604   -0.4453 C   0  0  0  0  0  0  0  0  0  0  0  0
    1.6959   -0.6857   -0.3523 C   0  0  0  0  0  0  0  0  0  0  0  0
    2.5481   -0.5188   -1.3222 C   0  0  0  0  0  0  0  0  0  0  0  0
    3.8305    0.1139   -1.1797 N   0  0  0  0  0  0  0  0  0  0  0  0
    4.3340    0.6072   -0.0722 C   0  0  0  0  0  0  0  0  0  0  0  0
    3.4094    0.4425    1.1011 C   0  0  0  0  0  0  0  0  0  0  0  0
    2.1999   -0.1593    0.9420 C   0  0  0  0  0  0  0  0  0  0  0  0
   -2.7921   -1.4882    3.0793 H   0  0  0  0  0  0  0  0  0  0  0  0
   -3.5679    0.9387    0.9293 H   0  0  0  0  0  0  0  0  0  0  0  0
   -2.0365    1.6998   -3.0128 H   0  0  0  0  0  0  0  0  0  0  0  0
   -0.1937    0.1289   -2.6151 H   0  0  0  0  0  0  0  0  0  0  0  0
    0.2176   -2.0449    0.3959 H   0  0  0  0  0  0  0  0  0  0  0  0
    0.3458   -2.0230   -1.3231 H   0  0  0  0  0  0  0  0  0  0  0  0
    5.3077    1.0934    0.0476 H   0  0  0  0  0  0  0  0  0  0  0  0
    3.7440    0.8139    2.0624 H   0  0  0  0  0  0  0  0  0  0  0  0
    1.5491   -0.2744    1.8048 H   0  0  0  0  0  0  0  0  0  0  0  0
  1  2  2  0
  2  3  1  0
  2  4  1  0
  4  5  1  0
  5  6  2  0
  6  7  1  0
  6  8  1  0
  8  9  2  0
  9 10  1  0
 10 11  1  0
 11 12  1  0
 12 13  2  0
 13 14  2  0
 14 15  2  0
 15 16  1  0
 16 17  2  0
 10  4  2  0
 17 12  1  0
  3 18  1  0
  5 19  1  0
  8 20  1  0
  9 21  1  0
 11 22  1  0
 11 23  1  0
 15 24  1  0
 16 25  1  0
 17 26  1  0
M  CHG  1  14   1
M  END
>  <Rank>  (8) 
8

>  <Score>  (8) 
0.7960

>  <Pharma_Score>  (8) 
1.0000

>  <QED>  (8) 
0.8660

>  <MW>  (8) 
291.12

>  <LogP>  (8) 
1.99

>  <PSA>  (8) 
51.4

>  <SA_Score>  (8) 
3.93

>  <HBD>  (8) 
1

>  <HBA>  (8) 
1

>  <Lip_Violations>  (8) 
0

>  <SMILES>  (8) 
O=C(O)c1cc(Br)ccc1CC1=C=[N+]=CC=C1

$$$$
Candidata_009
     RDKit          3D

 33 34  0  0  0  0  0  0  0  0999 V2000
   -0.6108    1.7948    1.5752 N   0  0  0  0  0  0  0  0  0  0  0  0
   -0.2709    0.5232    0.9295 C   0  0  0  0  0  0  0  0  0  0  0  0
    0.6415    0.6706   -0.3133 C   0  0  0  0  0  0  0  0  0  0  0  0
    2.3223    1.3875    0.0470 P   0  0  0  0  0  0  0  0  0  0  0  0
    3.1195   -0.0025    0.8768 C   0  0  0  0  0  0  0  0  0  0  0  0
    4.0691   -0.8323    0.2814 C   0  0  0  0  0  0  0  0  0  0  0  0
    4.5036   -0.6987   -1.0476 C   0  0  0  0  0  0  0  0  0  0  0  0
    4.0280    0.2847   -1.9307 C   0  0  0  0  0  0  0  0  0  0  0  0
    3.0736    1.2424   -1.5885 C   0  0  0  0  0  0  0  0  0  0  0  0
   -1.4893   -0.3432    0.6105 C   0  0  0  0  0  0  0  0  0  0  0  0
   -1.3375   -1.7321    0.8373 C   0  0  0  0  0  0  0  0  0  0  0  0
   -2.3786   -2.6345    0.6095 C   0  0  0  0  0  0  0  0  0  0  0  0
   -3.6013   -2.1672    0.1493 C   0  0  0  0  0  0  0  0  0  0  0  0
   -5.0188   -3.3797   -0.1514 Br  0  0  0  0  0  0  0  0  0  0  0  0
   -3.7855   -0.8104   -0.0945 C   0  0  0  0  0  0  0  0  0  0  0  0
   -2.7349    0.1039    0.1157 C   0  0  0  0  0  0  0  0  0  0  0  0
   -3.0863    1.5084   -0.1974 C   0  0  0  0  0  0  0  0  0  0  0  0
   -4.1690    2.0263    0.0033 O   0  0  0  0  0  0  0  0  0  0  0  0
   -2.1083    2.1695   -0.8340 O   0  0  0  0  0  0  0  0  0  0  0  0
   -1.3279    1.6515    2.2826 H   0  0  0  0  0  0  0  0  0  0  0  0
   -0.9848    2.4327    0.8735 H   0  0  0  0  0  0  0  0  0  0  0  0
    0.2969   -0.0157    1.6996 H   0  0  0  0  0  0  0  0  0  0  0  0
    0.1671    1.3064   -1.0675 H   0  0  0  0  0  0  0  0  0  0  0  0
    0.7813   -0.3101   -0.7866 H   0  0  0  0  0  0  0  0  0  0  0  0
    2.8433   -0.1666    1.9150 H   0  0  0  0  0  0  0  0  0  0  0  0
    4.5037   -1.6309    0.8835 H   0  0  0  0  0  0  0  0  0  0  0  0
    5.2542   -1.3991   -1.4155 H   0  0  0  0  0  0  0  0  0  0  0  0
    4.4281    0.2980   -2.9451 H   0  0  0  0  0  0  0  0  0  0  0  0
    2.7498    1.9646   -2.3330 H   0  0  0  0  0  0  0  0  0  0  0  0
   -0.3893   -2.1254    1.2051 H   0  0  0  0  0  0  0  0  0  0  0  0
   -2.2230   -3.6936    0.7999 H   0  0  0  0  0  0  0  0  0  0  0  0
   -4.7488   -0.4531   -0.4563 H   0  0  0  0  0  0  0  0  0  0  0  0
   -2.5171    3.0305   -1.0693 H   0  0  0  0  0  0  0  0  0  0  0  0
  1  2  1  0
  2  3  1  0
  3  4  1  0
  4  5  2  0
  5  6  1  0
  6  7  2  0
  7  8  1  0
  8  9  2  0
  2 10  1  0
 10 11  1  0
 11 12  2  0
 12 13  1  0
 13 14  1  0
 13 15  2  0
 15 16  1  0
 16 17  1  0
 17 18  2  0
 17 19  1  0
  9  4  1  0
 16 10  2  0
  1 20  1  0
  1 21  1  0
  2 22  1  0
  3 23  1  0
  3 24  1  0
  5 25  1  0
  6 26  1  0
  7 27  1  0
  8 28  1  0
  9 29  1  0
 11 30  1  0
 12 31  1  0
 15 32  1  0
 19 33  1  0
M  CHG  1   4   1
M  END
>  <Rank>  (9) 
9

>  <Score>  (9) 
0.7950

>  <Pharma_Score>  (9) 
1.0000

>  <QED>  (9) 
0.8810

>  <MW>  (9) 
339.15

>  <LogP>  (9) 
4.12

>  <PSA>  (9) 
63.3

>  <SA_Score>  (9) 
4.08

>  <HBD>  (9) 
2

>  <HBA>  (9) 
2

>  <Lip_Violations>  (9) 
0

>  <SMILES>  (9) 
NC(C[p+]1ccccc1)c1ccc(Br)cc1C(=O)O

$$$$
Candidata_010
     RDKit          3D

 29 30  0  0  0  0  0  0  0  0999 V2000
    3.2285    1.9275    1.8080 C   0  0  0  0  0  0  0  0  0  0  0  0
    3.1171    0.9115    0.7301 C   0  0  0  0  0  0  0  0  0  0  0  0
    3.2926    1.0886   -0.5895 C   0  0  0  0  0  0  0  0  0  0  0  0
    3.1010   -0.0862   -1.4074 C   0  0  0  0  0  0  0  0  0  0  0  0
    2.7763   -1.2085   -0.7481 C   0  0  0  0  0  0  0  0  0  0  0  0
    2.7192   -0.8854    1.0975 P   0  0  0  0  0  0  0  0  0  0  0  0
    0.8984   -0.7350    1.2814 C   0  0  0  0  0  0  0  0  0  0  0  0
   -0.3924   -0.6433    1.4210 C   0  0  0  0  0  0  0  0  0  0  0  0
   -1.3099   -0.2843    0.3256 C   0  0  0  0  0  0  0  0  0  0  0  0
   -0.8723    0.6329   -0.6511 C   0  0  0  0  0  0  0  0  0  0  0  0
   -1.6914    1.0091   -1.7185 C   0  0  0  0  0  0  0  0  0  0  0  0
   -2.9688    0.4748   -1.8254 C   0  0  0  0  0  0  0  0  0  0  0  0
   -4.0813    0.9820   -3.2664 Br  0  0  0  0  0  0  0  0  0  0  0  0
   -3.4348   -0.4285   -0.8747 C   0  0  0  0  0  0  0  0  0  0  0  0
   -2.6136   -0.8121    0.2033 C   0  0  0  0  0  0  0  0  0  0  0  0
   -3.1697   -1.7769    1.1888 C   0  0  0  0  0  0  0  0  0  0  0  0
   -2.9342   -1.8418    2.3791 O   0  0  0  0  0  0  0  0  0  0  0  0
   -4.0156   -2.6484    0.6058 O   0  0  0  0  0  0  0  0  0  0  0  0
    3.4923    2.9104    1.4037 H   0  0  0  0  0  0  0  0  0  0  0  0
    4.0030    1.6445    2.5281 H   0  0  0  0  0  0  0  0  0  0  0  0
    2.2787    2.0314    2.3424 H   0  0  0  0  0  0  0  0  0  0  0  0
    3.5420    2.0411   -1.0393 H   0  0  0  0  0  0  0  0  0  0  0  0
    3.1969   -0.0370   -2.4843 H   0  0  0  0  0  0  0  0  0  0  0  0
    2.5817   -2.1614   -1.2216 H   0  0  0  0  0  0  0  0  0  0  0  0
   -0.8147   -0.8242    2.4036 H   0  0  0  0  0  0  0  0  0  0  0  0
    0.1221    1.0725   -0.5875 H   0  0  0  0  0  0  0  0  0  0  0  0
   -1.3195    1.7179   -2.4540 H   0  0  0  0  0  0  0  0  0  0  0  0
   -4.4396   -0.8350   -0.9665 H   0  0  0  0  0  0  0  0  0  0  0  0
   -4.2918   -3.2362    1.3404 H   0  0  0  0  0  0  0  0  0  0  0  0
  1  2  1  0
  2  3  2  0
  3  4  1  0
  4  5  2  0
  5  6  1  0
  6  7  2  0
  7  8  2  0
  8  9  1  0
  9 10  1  0
 10 11  2  0
 11 12  1  0
 12 13  1  0
 12 14  2  0
 14 15  1  0
 15 16  1  0
 16 17  2  0
 16 18  1  0
  6  2  1  0
 15  9  2  0
  1 19  1  0
  1 20  1  0
  1 21  1  0
  3 22  1  0
  4 23  1  0
  5 24  1  0
  8 25  1  0
 10 26  1  0
 11 27  1  0
 14 28  1  0
 18 29  1  0
M  CHG  1   6   1
M  END
>  <Rank>  (10) 
10

>  <Score>  (10) 
0.7600

>  <Pharma_Score>  (10) 
1.0000

>  <QED>  (10) 
0.8160

>  <MW>  (10) 
322.12

>  <LogP>  (10) 
4.47

>  <PSA>  (10) 
37.3

>  <SA_Score>  (10) 
4.40

>  <HBD>  (10) 
1

>  <HBA>  (10) 
1

>  <Lip_Violations>  (10) 
0

>  <SMILES>  (10) 
CC1=CC=C[P+]1=C=Cc1ccc(Br)cc1C(=O)O

$$$$
Candidata_011
     RDKit          3D

 30 31  0  0  0  0  0  0  0  0999 V2000
   -2.7539    2.4919    2.2603 O   0  0  0  0  0  0  0  0  0  0  0  0
   -2.5739    2.1191    1.1172 C   0  0  0  0  0  0  0  0  0  0  0  0
   -2.0434    2.9131    0.1775 O   0  0  0  0  0  0  0  0  0  0  0  0
   -3.0075    0.8345    0.5692 C   0  0  0  0  0  0  0  0  0  0  0  0
   -2.2671   -0.1038   -0.0531 C   0  0  0  0  0  0  0  0  0  0  0  0
   -0.8220   -0.1590   -0.2965 C   0  0  0  0  0  0  0  0  0  0  0  0
    0.1733    0.8320    0.2560 C   0  0  0  0  0  0  0  0  0  0  0  0
    1.6222    0.3868    0.2479 C   0  0  0  0  0  0  0  0  0  0  0  0
    2.1158   -0.4404    1.2677 C   0  0  0  0  0  0  0  0  0  0  0  0
    3.4454   -0.8638    1.2533 C   0  0  0  0  0  0  0  0  0  0  0  0
    4.2929   -0.4681    0.2199 C   0  0  0  0  0  0  0  0  0  0  0  0
    3.8120    0.3498   -0.8011 C   0  0  0  0  0  0  0  0  0  0  0  0
    2.4827    0.7748   -0.7894 C   0  0  0  0  0  0  0  0  0  0  0  0
   -0.5225   -1.2483   -1.0227 C   0  0  0  0  0  0  0  0  0  0  0  0
   -1.7133   -2.0748   -1.3819 C   0  0  0  0  0  0  0  0  0  0  0  0
   -2.8575   -1.3875   -0.6296 C   0  0  0  0  0  0  0  0  0  0  0  0
   -4.3137   -0.9859   -1.8706 Br  0  0  0  0  0  0  0  0  0  0  0  0
   -3.4593   -2.5229    0.8515 Br  0  0  0  0  0  0  0  0  0  0  0  0
   -1.8602    3.7518    0.6496 H   0  0  0  0  0  0  0  0  0  0  0  0
   -4.0688    0.6692    0.7348 H   0  0  0  0  0  0  0  0  0  0  0  0
   -0.0789    1.0722    1.2965 H   0  0  0  0  0  0  0  0  0  0  0  0
    0.1004    1.7683   -0.3091 H   0  0  0  0  0  0  0  0  0  0  0  0
    1.4636   -0.7606    2.0775 H   0  0  0  0  0  0  0  0  0  0  0  0
    3.8198   -1.5032    2.0484 H   0  0  0  0  0  0  0  0  0  0  0  0
    5.3283   -0.7982    0.2100 H   0  0  0  0  0  0  0  0  0  0  0  0
    4.4728    0.6563   -1.6078 H   0  0  0  0  0  0  0  0  0  0  0  0
    2.1200    1.4082   -1.5959 H   0  0  0  0  0  0  0  0  0  0  0  0
    0.4767   -1.5326   -1.3299 H   0  0  0  0  0  0  0  0  0  0  0  0
   -1.8322   -2.0640   -2.4713 H   0  0  0  0  0  0  0  0  0  0  0  0
   -1.5516   -3.1147   -1.0784 H   0  0  0  0  0  0  0  0  0  0  0  0
  1  2  2  0
  2  3  1  0
  2  4  1  0
  4  5  2  3
  5  6  1  0
  6  7  1  0
  7  8  1  0
  8  9  2  0
  9 10  1  0
 10 11  2  0
 11 12  1  0
 12 13  2  0
  6 14  2  0
 14 15  1  0
 15 16  1  0
 16 17  1  0
 16 18  1  0
 16  5  1  0
 13  8  1  0
  3 19  1  0
  4 20  1  0
  7 21  1  0
  7 22  1  0
  9 23  1  0
 10 24  1  0
 11 25  1  0
 12 26  1  0
 13 27  1  0
 14 28  1  0
 15 29  1  0
 15 30  1  0
M  END
>  <Rank>  (11) 
11

>  <Score>  (11) 
0.7530

>  <Pharma_Score>  (11) 
1.0000

>  <QED>  (11) 
0.6420

>  <MW>  (11) 
372.06

>  <LogP>  (11) 
4.06

>  <PSA>  (11) 
37.3

>  <SA_Score>  (11) 
3.05

>  <HBD>  (11) 
1

>  <HBA>  (11) 
1

>  <Lip_Violations>  (11) 
0

>  <SMILES>  (11) 
O=C(O)C=C1C(Cc2ccccc2)=CCC1(Br)Br

$$$$
Candidata_012
     RDKit          3D

 25 27  0  0  0  0  0  0  0  0999 V2000
   -0.6854   -0.9542    2.8326 O   0  0  0  0  0  0  0  0  0  0  0  0
   -0.8464   -0.5160    1.6484 C   0  0  0  0  0  0  0  0  0  0  0  0
   -0.0993   -0.2014    0.5521 C   0  0  0  0  0  0  0  0  0  0  0  0
    1.3692   -0.1677    0.1205 C   0  0  0  0  0  0  0  0  0  0  0  0
    2.3611    0.0243    1.0833 C   0  0  0  0  0  0  0  0  0  0  0  0
    3.7027    0.0517    0.6991 C   0  0  0  0  0  0  0  0  0  0  0  0
    4.0490   -0.1147   -0.6418 C   0  0  0  0  0  0  0  0  0  0  0  0
    3.0547   -0.3070   -1.6010 C   0  0  0  0  0  0  0  0  0  0  0  0
    1.7116   -0.3331   -1.2214 C   0  0  0  0  0  0  0  0  0  0  0  0
   -1.3314    0.1779   -0.2106 C   0  0  0  0  0  0  0  0  0  0  0  0
   -1.8432    0.6482   -1.3761 C   0  0  0  0  0  0  0  0  0  0  0  0
   -3.2395    0.7845   -1.3880 C   0  0  0  0  0  0  0  0  0  0  0  0
   -4.0213    0.4503   -0.2452 C   0  0  0  0  0  0  0  0  0  0  0  0
   -5.9015    0.6593   -0.3279 Br  0  0  0  0  0  0  0  0  0  0  0  0
   -3.4387   -0.0235    0.9346 C   0  0  0  0  0  0  0  0  0  0  0  0
   -2.0873   -0.1318    0.8768 C   0  0  0  0  0  0  0  0  0  0  0  0
    0.2533   -1.1790    2.9524 H   0  0  0  0  0  0  0  0  0  0  0  0
    2.1058    0.1751    2.1278 H   0  0  0  0  0  0  0  0  0  0  0  0
    4.4786    0.2080    1.4442 H   0  0  0  0  0  0  0  0  0  0  0  0
    5.0943   -0.0932   -0.9399 H   0  0  0  0  0  0  0  0  0  0  0  0
    3.3262   -0.4398   -2.6452 H   0  0  0  0  0  0  0  0  0  0  0  0
    0.9507   -0.4988   -1.9779 H   0  0  0  0  0  0  0  0  0  0  0  0
   -1.2314    0.9062   -2.2290 H   0  0  0  0  0  0  0  0  0  0  0  0
   -3.7281    1.1556   -2.2867 H   0  0  0  0  0  0  0  0  0  0  0  0
   -4.0039   -0.2808    1.8188 H   0  0  0  0  0  0  0  0  0  0  0  0
  1  2  1  0
  2  3  2  0
  3  4  1  0
  4  5  2  0
  5  6  1  0
  6  7  2  0
  7  8  1  0
  8  9  2  0
  3 10  1  0
 10 11  1  0
 11 12  2  0
 12 13  1  0
 13 14  1  0
 13 15  2  0
 15 16  1  0
 16  2  1  0
  9  4  1  0
 16 10  2  0
  1 17  1  0
  5 18  1  0
  6 19  1  0
  7 20  1  0
  8 21  1  0
  9 22  1  0
 11 23  1  0
 12 24  1  0
 15 25  1  0
M  END
>  <Rank>  (12) 
12

>  <Score>  (12) 
0.7440

>  <Pharma_Score>  (12) 
0.7500

>  <QED>  (12) 
0.8240

>  <MW>  (12) 
273.13

>  <LogP>  (12) 
4.24

>  <PSA>  (12) 
20.2

>  <SA_Score>  (12) 
2.04

>  <HBD>  (12) 
1

>  <HBA>  (12) 
1

>  <Lip_Violations>  (12) 
0

>  <SMILES>  (12) 
OC1=C(c2ccccc2)c2ccc(Br)cc21

$$$$
Candidata_013
     RDKit          3D

 31 32  0  0  0  0  0  0  0  0999 V2000
   -3.9907   -1.0476   -0.8839 O   0  0  0  0  0  0  0  0  0  0  0  0
   -2.9088   -1.4360   -1.3182 C   0  0  0  0  0  0  0  0  0  0  0  0
   -1.5372   -0.9442   -0.8645 C   0  0  0  0  0  0  0  0  0  0  0  0
   -0.6556   -0.9797   -1.9852 O   0  0  0  0  0  0  0  0  0  0  0  0
   -1.5154    0.4454   -0.2458 C   0  0  0  0  0  0  0  0  0  0  0  0
   -2.2182    1.4883   -0.8873 C   0  0  0  0  0  0  0  0  0  0  0  0
   -2.2132    2.7838   -0.3732 C   0  0  0  0  0  0  0  0  0  0  0  0
   -3.1777    4.1497   -1.2548 Br  0  0  0  0  0  0  0  0  0  0  0  0
   -1.4995    3.0786    0.7798 C   0  0  0  0  0  0  0  0  0  0  0  0
   -0.7756    2.0706    1.4149 C   0  0  0  0  0  0  0  0  0  0  0  0
   -0.7599    0.7529    0.9124 C   0  0  0  0  0  0  0  0  0  0  0  0
    0.1038   -0.2672    1.6365 C   0  0  0  0  0  0  0  0  0  0  0  0
    1.3496   -0.6796    0.8813 C   0  0  0  0  0  0  0  0  0  0  0  0
    2.2432    0.2774    0.3761 C   0  0  0  0  0  0  0  0  0  0  0  0
    3.3927   -0.1155   -0.3115 C   0  0  0  0  0  0  0  0  0  0  0  0
    3.6695   -1.4684   -0.4924 C   0  0  0  0  0  0  0  0  0  0  0  0
    2.8011   -2.4296    0.0198 C   0  0  0  0  0  0  0  0  0  0  0  0
    1.6512   -2.0386    0.7080 C   0  0  0  0  0  0  0  0  0  0  0  0
   -2.8775   -2.2682   -2.0432 H   0  0  0  0  0  0  0  0  0  0  0  0
   -1.1931   -1.7043   -0.1594 H   0  0  0  0  0  0  0  0  0  0  0  0
   -0.0106   -0.2577   -1.8729 H   0  0  0  0  0  0  0  0  0  0  0  0
   -2.7855    1.2828   -1.7941 H   0  0  0  0  0  0  0  0  0  0  0  0
   -1.4926    4.0857    1.1878 H   0  0  0  0  0  0  0  0  0  0  0  0
   -0.2081    2.3241    2.3092 H   0  0  0  0  0  0  0  0  0  0  0  0
    0.4229    0.1273    2.6106 H   0  0  0  0  0  0  0  0  0  0  0  0
   -0.5177   -1.1386    1.8777 H   0  0  0  0  0  0  0  0  0  0  0  0
    2.0518    1.3397    0.5126 H   0  0  0  0  0  0  0  0  0  0  0  0
    4.0746    0.6352   -0.7029 H   0  0  0  0  0  0  0  0  0  0  0  0
    4.5650   -1.7740   -1.0272 H   0  0  0  0  0  0  0  0  0  0  0  0
    3.0208   -3.4856   -0.1150 H   0  0  0  0  0  0  0  0  0  0  0  0
    0.9907   -2.8065    1.1047 H   0  0  0  0  0  0  0  0  0  0  0  0
  1  2  2  0
  2  3  1  0
  3  4  1  0
  3  5  1  0
  5  6  1  0
  6  7  2  0
  7  8  1  0
  7  9  1  0
  9 10  2  0
 10 11  1  0
 11 12  1  0
 12 13  1  0
 13 14  2  0
 14 15  1  0
 15 16  2  0
 16 17  1  0
 17 18  2  0
 11  5  2  0
 18 13  1  0
  2 19  1  0
  3 20  1  0
  4 21  1  0
  6 22  1  0
  9 23  1  0
 10 24  1  0
 12 25  1  0
 12 26  1  0
 14 27  1  0
 15 28  1  0
 16 29  1  0
 17 30  1  0
 18 31  1  0
M  END
>  <Rank>  (13) 
13

>  <Score>  (13) 
0.7380

>  <Pharma_Score>  (13) 
0.7500

>  <QED>  (13) 
0.8800

>  <MW>  (13) 
305.17

>  <LogP>  (13) 
3.27

>  <PSA>  (13) 
37.3

>  <SA_Score>  (13) 
2.68

>  <HBD>  (13) 
1

>  <HBA>  (13) 
2

>  <Lip_Violations>  (13) 
0

>  <SMILES>  (13) 
O=CC(O)c1cc(Br)ccc1Cc1ccccc1

$$$$
Candidata_014
     RDKit          3D

 18 18  0  0  0  0  0  0  0  0999 V2000
    2.9837   -2.3313   -0.8381 C   0  0  0  0  0  1  0  0  0  0  0  0
    1.9444   -1.2499   -0.4827 C   0  0  0  0  0  0  0  0  0  0  0  0
    2.3640    0.0504   -0.2199 C   0  0  0  0  0  0  0  0  0  0  0  0
    1.4275    1.0370    0.1023 C   0  0  0  0  0  0  0  0  0  0  0  0
    0.0532    0.7352    0.1774 C   0  0  0  0  0  0  0  0  0  0  0  0
   -0.9012    1.8605    0.4714 C   0  0  0  0  0  0  0  0  0  0  0  0
   -1.7959    2.4010   -1.1680 Br  0  0  0  0  0  0  0  0  0  0  0  0
   -0.3511   -0.5942   -0.0795 C   0  0  0  0  0  0  0  0  0  0  0  0
   -1.7559   -1.0603   -0.0497 C   0  0  0  0  0  0  0  0  0  0  0  0
   -2.2397   -1.8901   -0.7952 O   0  0  0  0  0  0  0  0  0  0  0  0
   -2.4486   -0.5450    0.9761 O   0  0  0  0  0  0  0  0  0  0  0  0
    0.5957   -1.5748   -0.4199 C   0  0  0  0  0  0  0  0  0  0  0  0
    3.4203    0.3025   -0.2743 H   0  0  0  0  0  0  0  0  0  0  0  0
    1.7819    2.0517    0.2822 H   0  0  0  0  0  0  0  0  0  0  0  0
   -0.3733    2.7524    0.8251 H   0  0  0  0  0  0  0  0  0  0  0  0
   -1.6532    1.6194    1.2231 H   0  0  0  0  0  0  0  0  0  0  0  0
   -3.3301   -0.9708    0.9032 H   0  0  0  0  0  0  0  0  0  0  0  0
    0.2785   -2.5937   -0.6335 H   0  0  0  0  0  0  0  0  0  0  0  0
  1  2  1  0
  2  3  1  0
  3  4  2  0
  4  5  1  0
  5  6  1  0
  6  7  1  0
  5  8  2  0
  8  9  1  0
  9 10  2  0
  9 11  1  0
  8 12  1  0
 12  2  2  0
  3 13  1  0
  4 14  1  0
  6 15  1  0
  6 16  1  0
 11 17  1  0
 12 18  1  0
M  CHG  1   1   1
M  RAD  1   1   3
M  END
>  <Rank>  (14) 
14

>  <Score>  (14) 
0.7300

>  <Pharma_Score>  (14) 
1.0000

>  <QED>  (14) 
0.6200

>  <MW>  (14) 
226.05

>  <LogP>  (14) 
2.22

>  <PSA>  (14) 
37.3

>  <SA_Score>  (14) 
3.43

>  <HBD>  (14) 
1

>  <HBA>  (14) 
1

>  <Lip_Violations>  (14) 
0

>  <SMILES>  (14) 
[C+]c1ccc(CBr)c(C(=O)O)c1

$$$$
Candidata_015
     RDKit          3D

 27 28  0  0  0  0  0  0  0  0999 V2000
    1.7636   -2.0006   -1.7054 O   0  0  0  0  0  0  0  0  0  0  0  0
    2.5914   -1.4064   -1.0385 C   0  0  0  0  0  0  0  0  0  0  0  0
    3.8415   -1.8753   -0.9015 O   0  0  0  0  0  0  0  0  0  0  0  0
    2.3494   -0.1483   -0.3090 C   0  0  0  0  0  0  0  0  0  0  0  0
    3.3759    0.5578    0.2538 C   0  0  0  0  0  0  0  0  0  0  0  0
    3.1145    1.8565    0.8873 C   0  0  0  0  0  0  0  0  0  0  0  0
    4.4098    2.9149    1.6299 Br  0  0  0  0  0  0  0  0  0  0  0  0
    1.8842    2.2615    0.8192 C   0  0  0  0  0  0  0  0  0  0  0  0
    0.9484    1.6914    0.3382 C   0  0  0  0  0  0  0  0  0  0  0  0
    0.8645    0.3556   -0.3014 C   0  0  0  0  0  0  0  0  0  0  0  0
   -0.0603   -0.5797    0.5013 C   0  0  0  0  0  0  0  0  0  0  0  0
   -1.5251   -0.2832    0.2695 C   0  0  0  0  0  0  0  0  0  0  0  0
   -2.1809   -0.8097   -0.8523 C   0  0  0  0  0  0  0  0  0  0  0  0
   -3.5283   -0.5272   -1.0801 C   0  0  0  0  0  0  0  0  0  0  0  0
   -4.2308    0.2852   -0.1920 C   0  0  0  0  0  0  0  0  0  0  0  0
   -3.5868    0.8161    0.9241 C   0  0  0  0  0  0  0  0  0  0  0  0
   -2.2394    0.5347    1.1547 C   0  0  0  0  0  0  0  0  0  0  0  0
    3.8475   -2.6997   -1.4315 H   0  0  0  0  0  0  0  0  0  0  0  0
    4.4044    0.2115    0.2250 H   0  0  0  0  0  0  0  0  0  0  0  0
    0.5262    0.4604   -1.3400 H   0  0  0  0  0  0  0  0  0  0  0  0
    0.1103   -1.6298    0.2340 H   0  0  0  0  0  0  0  0  0  0  0  0
    0.1588   -0.5186    1.5765 H   0  0  0  0  0  0  0  0  0  0  0  0
   -1.6447   -1.4450   -1.5550 H   0  0  0  0  0  0  0  0  0  0  0  0
   -4.0296   -0.9408   -1.9512 H   0  0  0  0  0  0  0  0  0  0  0  0
   -5.2799    0.5055   -0.3703 H   0  0  0  0  0  0  0  0  0  0  0  0
   -4.1339    1.4519    1.6154 H   0  0  0  0  0  0  0  0  0  0  0  0
   -1.7507    0.9613    2.0279 H   0  0  0  0  0  0  0  0  0  0  0  0
  1  2  2  0
  2  3  1  0
  2  4  1  0
  4  5  2  0
  5  6  1  0
  6  7  1  0
  6  8  2  0
  8  9  2  0
  9 10  1  0
 10 11  1  0
 11 12  1  0
 12 13  2  0
 13 14  1  0
 14 15  2  0
 15 16  1  0
 16 17  2  0
 10  4  1  0
 17 12  1  0
  3 18  1  0
  5 19  1  0
 10 20  1  0
 11 21  1  0
 11 22  1  0
 13 23  1  0
 14 24  1  0
 15 25  1  0
 16 26  1  0
 17 27  1  0
M  CHG  1   9   1
M  END
>  <Rank>  (15) 
15

>  <Score>  (15) 
0.7260

>  <Pharma_Score>  (15) 
1.0000

>  <QED>  (15) 
0.6860

>  <MW>  (15) 
290.14

>  <LogP>  (15) 
3.11

>  <PSA>  (15) 
37.3

>  <SA_Score>  (15) 
4.10

>  <HBD>  (15) 
1

>  <HBA>  (15) 
1

>  <Lip_Violations>  (15) 
0

>  <SMILES>  (15) 
O=C(O)C1=CC(Br)=C=[C+]C1Cc1ccccc1

$$$$
Candidata_016
     RDKit          3D

 15 14  0  0  0  0  0  0  0  0999 V2000
    1.9179    0.1545    1.0131 C   0  0  0  0  0  0  0  0  0  0  0  0
    1.4976    0.2438   -0.4476 C   0  0  0  0  0  0  0  0  0  0  0  0
    1.9396    2.0382   -1.1054 Br  0  0  0  0  0  0  0  0  0  0  0  0
    0.0469    0.0160   -0.7639 C   0  0  0  0  0  0  0  0  0  0  0  0
   -0.9469   -0.1903    0.1171 C   0  0  0  0  0  0  0  0  0  0  0  0
   -2.3507   -0.4179   -0.2602 C   0  0  0  0  0  0  0  0  0  0  0  0
   -3.2546   -0.5912    0.5372 O   0  0  0  0  0  0  0  0  0  0  0  0
   -2.5643   -0.4271   -1.5838 O   0  0  0  0  0  0  0  0  0  0  0  0
    2.9941    0.3322    1.1214 H   0  0  0  0  0  0  0  0  0  0  0  0
    1.7075   -0.8406    1.4197 H   0  0  0  0  0  0  0  0  0  0  0  0
    1.4021    0.8938    1.6367 H   0  0  0  0  0  0  0  0  0  0  0  0
    2.1071   -0.4421   -1.0453 H   0  0  0  0  0  0  0  0  0  0  0  0
   -0.1891    0.0083   -1.8285 H   0  0  0  0  0  0  0  0  0  0  0  0
   -0.7791   -0.1965    1.1881 H   0  0  0  0  0  0  0  0  0  0  0  0
   -3.5281   -0.5811   -1.6646 H   0  0  0  0  0  0  0  0  0  0  0  0
  1  2  1  0
  2  3  1  0
  2  4  1  0
  4  5  2  3
  5  6  1  0
  6  7  2  0
  6  8  1  0
  1  9  1  0
  1 10  1  0
  1 11  1  0
  2 12  1  0
  4 13  1  0
  5 14  1  0
  8 15  1  0
M  END
>  <Rank>  (16) 
16

>  <Score>  (16) 
0.6820

>  <Pharma_Score>  (16) 
1.0000

>  <QED>  (16) 
0.5130

>  <MW>  (16) 
179.01

>  <LogP>  (16) 
1.41

>  <PSA>  (16) 
37.3

>  <SA_Score>  (16) 
3.69

>  <HBD>  (16) 
1

>  <HBA>  (16) 
1

>  <Lip_Violations>  (16) 
0

>  <SMILES>  (16) 
CC(Br)C=CC(=O)O

$$$$
Candidata_017
     RDKit          3D

 39 41  0  0  0  0  0  0  0  0999 V2000
   -1.4762   -0.6884   -1.9048 N   0  0  0  0  0  0  0  0  0  0  0  0
   -1.0171   -1.0029   -0.5512 C   0  0  0  0  0  0  0  0  0  0  0  0
   -2.1294   -1.2848    0.4301 C   0  0  0  0  0  0  0  0  0  0  0  0
   -3.4308   -0.9540    0.4382 C   0  0  0  0  0  0  0  0  0  0  0  0
   -4.2949   -1.3829    1.4986 C   0  0  0  0  0  0  0  0  0  0  0  0
   -5.4638   -1.1471    1.6079 C   0  0  0  0  0  0  0  0  0  0  0  0
   -6.2350   -0.4543    0.8205 C   0  0  0  0  0  0  0  0  0  0  0  0
   -5.5272    0.1047   -0.3514 C   0  0  0  0  0  0  0  0  0  0  0  0
   -4.1963   -0.1295   -0.5347 C   0  0  0  0  0  0  0  0  0  0  0  0
   -0.0742    0.0900   -0.0380 C   0  0  0  0  0  0  0  0  0  0  0  0
   -0.4966    1.3735    0.0270 C   0  0  0  0  0  0  0  0  0  0  0  0
    0.2663    2.5306    0.4293 C   0  0  0  0  0  0  0  0  0  0  0  0
    1.5409    2.7240    0.0640 C   0  0  0  0  0  0  0  0  0  0  0  0
    2.3242    1.7283   -0.7464 C   0  0  0  0  0  0  0  0  0  0  0  0
    2.4727    0.4076   -0.0131 C   0  0  0  0  0  0  0  0  0  0  0  0
    3.7457   -0.0920    0.3542 C   0  0  0  0  0  0  0  0  0  0  0  0
    5.0042    0.5578   -0.0796 C   0  0  0  0  0  0  0  0  0  0  0  0
    5.2601    0.9834   -1.1885 O   0  0  0  0  0  0  0  0  0  0  0  0
    5.8870    0.6356    0.9320 O   0  0  0  0  0  0  0  0  0  0  0  0
    3.8671   -1.2646    1.1122 C   0  0  0  0  0  0  0  0  0  0  0  0
    2.7277   -1.9475    1.5066 C   0  0  0  0  0  0  0  0  0  0  0  0
    2.8876   -3.5211    2.5425 Br  0  0  0  0  0  0  0  0  0  0  0  0
    1.4657   -1.4902    1.1356 C   0  0  0  0  0  0  0  0  0  0  0  0
    1.3104   -0.3248    0.3607 C   0  0  0  0  0  0  0  0  0  0  0  0
   -1.9588   -1.5054   -2.2755 H   0  0  0  0  0  0  0  0  0  0  0  0
   -0.6572   -0.5566   -2.4966 H   0  0  0  0  0  0  0  0  0  0  0  0
   -0.4613   -1.9426   -0.6639 H   0  0  0  0  0  0  0  0  0  0  0  0
   -1.7870   -1.8713    1.2834 H   0  0  0  0  0  0  0  0  0  0  0  0
   -7.2871   -0.2786    0.9946 H   0  0  0  0  0  0  0  0  0  0  0  0
   -6.0955    0.7100   -1.0491 H   0  0  0  0  0  0  0  0  0  0  0  0
   -3.6833    0.3015   -1.3858 H   0  0  0  0  0  0  0  0  0  0  0  0
   -1.5253    1.6011   -0.2524 H   0  0  0  0  0  0  0  0  0  0  0  0
   -0.2613    3.2920    0.9982 H   0  0  0  0  0  0  0  0  0  0  0  0
    2.0499    3.6354    0.3651 H   0  0  0  0  0  0  0  0  0  0  0  0
    1.8544    1.5593   -1.7238 H   0  0  0  0  0  0  0  0  0  0  0  0
    3.2843    2.1983   -0.9676 H   0  0  0  0  0  0  0  0  0  0  0  0
    6.6638    1.0877    0.5405 H   0  0  0  0  0  0  0  0  0  0  0  0
    4.8507   -1.6373    1.3888 H   0  0  0  0  0  0  0  0  0  0  0  0
    0.5955   -2.0451    1.4758 H   0  0  0  0  0  0  0  0  0  0  0  0
  1  2  1  0
  2  3  1  0
  3  4  2  3
  4  5  1  0
  5  6  2  0
  6  7  2  0
  7  8  1  0
  8  9  2  0
  2 10  1  0
 10 11  2  0
 11 12  1  0
 12 13  2  0
 13 14  1  0
 14 15  1  0
 15 16  2  0
 16 17  1  0
 17 18  2  0
 17 19  1  0
 16 20  1  0
 20 21  2  0
 21 22  1  0
 21 23  1  0
 23 24  2  0
  9  4  1  0
 24 10  1  0
 24 15  1  0
  1 25  1  0
  1 26  1  0
  2 27  1  0
  3 28  1  0
  7 29  1  0
  8 30  1  0
  9 31  1  0
 11 32  1  0
 12 33  1  0
 13 34  1  0
 14 35  1  0
 14 36  1  0
 19 37  1  0
 20 38  1  0
 23 39  1  0
M  CHG  1   5   1
M  END
>  <Rank>  (17) 
17

>  <Score>  (17) 
0.6700

>  <Pharma_Score>  (17) 
1.0000

>  <QED>  (17) 
0.6150

>  <MW>  (17) 
381.25

>  <LogP>  (17) 
3.98

>  <PSA>  (17) 
63.3

>  <SA_Score>  (17) 
4.89

>  <HBD>  (17) 
2

>  <HBA>  (17) 
2

>  <Lip_Violations>  (17) 
0

>  <SMILES>  (17) 
NC(C=C1[C+]=C=CC=C1)C1=CC=CCc2c(C(=O)O)cc(Br)cc21

$$$$
Candidata_018
     RDKit          3D

 30 32  0  0  0  0  0  0  0  0999 V2000
   -2.3826   -2.3885   -1.4659 O   0  0  0  0  0  0  0  0  0  0  0  0
   -1.6591   -1.9980   -0.4084 C   0  0  0  0  0  0  0  0  0  0  0  0
   -0.6872   -2.7460   -0.0093 N   0  0  0  0  0  3  0  0  0  0  0  0
   -0.0209   -2.2601    1.1557 O   0  0  0  0  0  0  0  0  0  0  0  0
    0.1885   -0.8263    1.2099 C   0  0  0  0  0  0  0  0  0  0  0  0
    1.3028   -0.3489    0.2807 C   0  0  0  0  0  0  0  0  0  0  0  0
    1.9929   -1.1539   -0.5519 C   0  0  0  0  0  0  0  0  0  0  0  0
    3.0327   -0.6620   -1.4221 C   0  0  0  0  0  0  0  0  0  0  0  0
    3.5334    0.5716   -1.2829 C   0  0  0  0  0  0  0  0  0  0  0  0
    3.0229    1.5158   -0.2375 C   0  0  0  0  0  0  0  0  0  0  0  0
    1.6530    1.1277    0.3511 C   0  0  0  0  0  0  0  0  0  0  0  0
   -1.1380   -0.1245    1.0177 C   0  0  0  0  0  0  0  0  0  0  0  0
   -1.4634    1.0867    1.6417 C   0  0  0  0  0  0  0  0  0  0  0  0
   -2.6960    1.6941    1.3873 C   0  0  0  0  0  0  0  0  0  0  0  0
   -3.6037    1.0928    0.5127 C   0  0  0  0  0  0  0  0  0  0  0  0
   -5.2664    1.9266    0.1741 Br  0  0  0  0  0  0  0  0  0  0  0  0
   -3.2994   -0.1162   -0.1069 C   0  0  0  0  0  0  0  0  0  0  0  0
   -2.0681   -0.7169    0.1596 C   0  0  0  0  0  0  0  0  0  0  0  0
   -2.0182   -3.2392   -1.7655 H   0  0  0  0  0  0  0  0  0  0  0  0
    0.5203   -0.6411    2.2395 H   0  0  0  0  0  0  0  0  0  0  0  0
    1.7832   -2.2190   -0.6165 H   0  0  0  0  0  0  0  0  0  0  0  0
    3.4204   -1.3393   -2.1778 H   0  0  0  0  0  0  0  0  0  0  0  0
    4.3406    0.9073   -1.9269 H   0  0  0  0  0  0  0  0  0  0  0  0
    3.7660    1.5666    0.5682 H   0  0  0  0  0  0  0  0  0  0  0  0
    2.9524    2.5247   -0.6607 H   0  0  0  0  0  0  0  0  0  0  0  0
    1.6299    1.4669    1.3940 H   0  0  0  0  0  0  0  0  0  0  0  0
    0.8753    1.6888   -0.1830 H   0  0  0  0  0  0  0  0  0  0  0  0
   -0.7637    1.5651    2.3232 H   0  0  0  0  0  0  0  0  0  0  0  0
   -2.9396    2.6360    1.8734 H   0  0  0  0  0  0  0  0  0  0  0  0
   -4.0082   -0.5906   -0.7797 H   0  0  0  0  0  0  0  0  0  0  0  0
  1  2  1  0
  2  3  2  0
  3  4  1  0
  4  5  1  0
  5  6  1  0
  6  7  2  0
  7  8  1  0
  8  9  2  0
  9 10  1  0
 10 11  1  0
  5 12  1  0
 12 13  1  0
 13 14  2  0
 14 15  1  0
 15 16  1  0
 15 17  2  0
 17 18  1  0
 18  2  1  0
 11  6  1  0
 18 12  2  0
  1 19  1  0
  5 20  1  0
  7 21  1  0
  8 22  1  0
  9 23  1  0
 10 24  1  0
 10 25  1  0
 11 26  1  0
 11 27  1  0
 13 28  1  0
 14 29  1  0
 17 30  1  0
M  CHG  1   3   1
M  RAD  1   3   2
M  END
>  <Rank>  (18) 
18

>  <Score>  (18) 
0.6670

>  <Pharma_Score>  (18) 
0.7500

>  <QED>  (18) 
0.8640

>  <MW>  (18) 
306.16

>  <LogP>  (18) 
3.35

>  <PSA>  (18) 
43.6

>  <SA_Score>  (18) 
4.33

>  <HBD>  (18) 
1

>  <HBA>  (18) 
2

>  <Lip_Violations>  (18) 
0

>  <SMILES>  (18) 
OC1=[N+]OC(C2=CC=CCC2)c2ccc(Br)cc21

$$$$
Candidata_019
     RDKit          3D

 16 16  0  0  0  0  0  0  0  0999 V2000
    2.5506   -1.0696   -0.2743 O   0  0  0  0  0  0  0  0  0  0  0  0
    2.0258    0.0252    0.2299 C   0  0  0  0  0  0  0  0  0  0  0  0
    2.5704    1.0134   -0.6241 O   0  0  0  0  0  0  0  0  0  0  0  0
    0.5056   -0.0195    0.1168 C   0  0  0  0  0  0  0  0  0  0  0  0
   -0.2053    0.7613   -0.8086 C   0  0  0  0  0  0  0  0  0  0  0  0
   -1.6016    0.7224   -0.8636 C   0  0  0  0  0  0  0  0  0  0  0  0
   -2.3129   -0.0986    0.0097 C   0  0  0  0  0  0  0  0  0  0  0  0
   -1.6283   -0.8818    0.9367 C   0  0  0  0  0  0  0  0  0  0  0  0
   -0.2328   -0.8398    0.9897 C   0  0  0  0  0  0  0  0  0  0  0  0
    2.2451    0.3671    1.2491 H   0  0  0  0  0  0  0  0  0  0  0  0
    3.1227    0.4102   -1.1558 H   0  0  0  0  0  0  0  0  0  0  0  0
    0.3457    1.4007   -1.4931 H   0  0  0  0  0  0  0  0  0  0  0  0
   -2.1244    1.3323   -1.5928 H   0  0  0  0  0  0  0  0  0  0  0  0
   -3.3962   -0.1325   -0.0368 H   0  0  0  0  0  0  0  0  0  0  0  0
   -2.1710   -1.5316    1.6150 H   0  0  0  0  0  0  0  0  0  0  0  0
    0.3066   -1.4592    1.7022 H   0  0  0  0  0  0  0  0  0  0  0  0
  1  2  1  0
  2  3  1  0
  2  4  1  0
  4  5  2  0
  5  6  1  0
  6  7  2  0
  7  8  1  0
  8  9  2  0
  9  4  1  0
  2 10  1  0
  3 11  1  0
  5 12  1  0
  6 13  1  0
  7 14  1  0
  8 15  1  0
  9 16  1  0
M  CHG  1   1  -1
M  END
>  <Rank>  (19) 
19

>  <Score>  (19) 
0.6140

>  <Pharma_Score>  (19) 
0.7500

>  <QED>  (19) 
0.5360

>  <MW>  (19) 
123.13

>  <LogP>  (19) 
0.04

>  <PSA>  (19) 
43.3

>  <SA_Score>  (19) 
2.79

>  <HBD>  (19) 
1

>  <HBA>  (19) 
2

>  <Lip_Violations>  (19) 
0

>  <SMILES>  (19) 
[O-]C(O)c1ccccc1

$$$$
Candidata_020
     RDKit          3D

 25 24  0  0  0  0  0  0  0  0999 V2000
    3.0779    2.8576   -0.1731 O   0  0  0  0  0  0  0  0  0  0  0  0
    2.2526    2.2744    0.5021 C   0  0  0  0  0  0  0  0  0  0  0  0
    1.4655    2.9051    1.3860 O   0  0  0  0  0  0  0  0  0  0  0  0
    1.9529    0.8377    0.4978 C   0  0  0  0  0  0  0  0  0  0  0  0
    2.6571    0.0136   -0.2947 C   0  0  0  0  0  0  0  0  0  0  0  0
    2.4606   -1.4121   -0.4108 C   0  0  0  0  0  0  0  0  0  0  0  0
    3.6064   -2.4142   -1.4734 Br  0  0  0  0  0  0  0  0  0  0  0  0
    1.4703   -2.0749    0.1099 C   0  0  0  0  0  0  0  0  0  0  0  0
    0.4701   -2.7332    0.6254 C   0  0  0  0  0  0  0  0  0  0  0  0
   -0.8772   -2.1964    0.7583 C   0  0  0  0  0  0  0  0  0  0  0  0
   -1.9158   -3.0626    2.0705 Br  0  0  0  0  0  0  0  0  0  0  0  0
   -1.3366   -1.1818   -0.0035 C   0  0  0  0  0  0  0  0  0  0  0  0
   -2.6404   -0.5510    0.0614 C   0  0  0  0  0  0  0  0  0  0  0  0
   -3.0588    0.4756   -0.6985 C   0  0  0  0  0  0  0  0  0  0  0  0
   -2.3368    1.1706   -1.8052 C   0  0  0  0  0  0  0  0  0  0  0  0
   -1.6565    2.8558   -1.1182 Br  0  0  0  0  0  0  0  0  0  0  0  0
    1.7139    3.8488    1.2988 H   0  0  0  0  0  0  0  0  0  0  0  0
    1.1554    0.5032    1.1496 H   0  0  0  0  0  0  0  0  0  0  0  0
    3.4529    0.4317   -0.9118 H   0  0  0  0  0  0  0  0  0  0  0  0
    0.6516   -3.7405    0.9902 H   0  0  0  0  0  0  0  0  0  0  0  0
   -0.6615   -0.7650   -0.7466 H   0  0  0  0  0  0  0  0  0  0  0  0
   -3.3370   -0.9206    0.8122 H   0  0  0  0  0  0  0  0  0  0  0  0
   -4.0641    0.8525   -0.5089 H   0  0  0  0  0  0  0  0  0  0  0  0
   -3.0178    1.4069   -2.6271 H   0  0  0  0  0  0  0  0  0  0  0  0
   -1.4847    0.6189   -2.2056 H   0  0  0  0  0  0  0  0  0  0  0  0
  1  2  2  0
  2  3  1  0
  2  4  1  0
  4  5  2  3
  5  6  1  0
  6  7  1  0
  6  8  2  0
  8  9  2  0
  9 10  1  0
 10 11  1  0
 10 12  2  3
 12 13  1  0
 13 14  2  3
 14 15  1  0
 15 16  1  0
  3 17  1  0
  4 18  1  0
  5 19  1  0
  9 20  1  0
 12 21  1  0
 13 22  1  0
 14 23  1  0
 15 24  1  0
 15 25  1  0
M  END
>  <Rank>  (20) 
20

>  <Score>  (20) 
0.5870

>  <Pharma_Score>  (20) 
1.0000

>  <QED>  (20) 
0.3160

>  <MW>  (20) 
412.90

>  <LogP>  (20) 
4.29

>  <PSA>  (20) 
37.3

>  <SA_Score>  (20) 
4.34

>  <HBD>  (20) 
1

>  <HBA>  (20) 
1

>  <Lip_Violations>  (20) 
0

>  <SMILES>  (20) 
O=C(O)C=CC(Br)=C=CC(Br)=CC=CCBr

$$$$
Candidata_021
     RDKit          3D

 28 28  0  0  0  0  0  0  0  0999 V2000
   -5.0083   -1.1715   -1.7552 C   0  0  0  0  0  0  0  0  0  0  0  0
   -3.5771   -0.7702   -1.4952 C   0  0  0  0  0  0  0  0  0  0  0  0
   -2.8368   -0.4872   -2.4402 O   0  0  0  0  0  0  0  0  0  0  0  0
   -3.0785   -0.7183   -0.0715 C   0  0  0  0  0  0  0  0  0  0  0  0
   -4.0875   -1.5481    1.2686 Br  0  0  0  0  0  0  0  0  0  0  0  0
   -1.9189   -0.0634    0.1379 C   0  0  0  0  0  0  0  0  0  0  0  0
   -1.2349    0.1158    1.4040 C   0  0  0  0  0  0  0  0  0  0  0  0
   -0.0853    0.7834    1.5992 C   0  0  0  0  0  0  0  0  0  0  0  0
    0.7600    1.5254    0.6000 C   0  0  0  0  0  0  0  0  0  0  0  0
    2.0906    0.8503    0.3685 C   0  0  0  0  0  0  0  0  0  0  0  0
    2.1992   -0.2036   -0.5504 C   0  0  0  0  0  0  0  0  0  0  0  0
    3.4242   -0.8400   -0.7563 C   0  0  0  0  0  0  0  0  0  0  0  0
    4.5504   -0.4338   -0.0432 C   0  0  0  0  0  0  0  0  0  0  0  0
    4.4527    0.6073    0.8782 C   0  0  0  0  0  0  0  0  0  0  0  0
    3.2286    1.2454    1.0860 C   0  0  0  0  0  0  0  0  0  0  0  0
   -5.2520   -0.9696   -2.8031 H   0  0  0  0  0  0  0  0  0  0  0  0
   -5.1399   -2.2406   -1.5714 H   0  0  0  0  0  0  0  0  0  0  0  0
   -5.6910   -0.5801   -1.1397 H   0  0  0  0  0  0  0  0  0  0  0  0
   -1.4245    0.3762   -0.7267 H   0  0  0  0  0  0  0  0  0  0  0  0
   -1.6821   -0.3461    2.2829 H   0  0  0  0  0  0  0  0  0  0  0  0
    0.3033    0.8095    2.6176 H   0  0  0  0  0  0  0  0  0  0  0  0
    0.9259    2.5432    0.9763 H   0  0  0  0  0  0  0  0  0  0  0  0
    0.2553    1.6611   -0.3621 H   0  0  0  0  0  0  0  0  0  0  0  0
    1.3269   -0.5352   -1.1098 H   0  0  0  0  0  0  0  0  0  0  0  0
    3.4980   -1.6543   -1.4723 H   0  0  0  0  0  0  0  0  0  0  0  0
    5.5035   -0.9303   -0.2040 H   0  0  0  0  0  0  0  0  0  0  0  0
    5.3304    0.9218    1.4367 H   0  0  0  0  0  0  0  0  0  0  0  0
    3.1680    2.0532    1.8114 H   0  0  0  0  0  0  0  0  0  0  0  0
  1  2  1  0
  2  3  2  0
  2  4  1  0
  4  5  1  0
  4  6  2  3
  6  7  1  0
  7  8  2  3
  8  9  1  0
  9 10  1  0
 10 11  2  0
 11 12  1  0
 12 13  2  0
 13 14  1  0
 14 15  2  0
 15 10  1  0
  1 16  1  0
  1 17  1  0
  1 18  1  0
  6 19  1  0
  7 20  1  0
  8 21  1  0
  9 22  1  0
  9 23  1  0
 11 24  1  0
 12 25  1  0
 13 26  1  0
 14 27  1  0
 15 28  1  0
M  END
>  <Rank>  (21) 
21

>  <Score>  (21) 
0.5260

>  <Pharma_Score>  (21) 
0.5000

>  <QED>  (21) 
0.6000

>  <MW>  (21) 
265.15

>  <LogP>  (21) 
3.65

>  <PSA>  (21) 
17.1

>  <SA_Score>  (21) 
2.73

>  <HBD>  (21) 
0

>  <HBA>  (21) 
1

>  <Lip_Violations>  (21) 
0

>  <SMILES>  (21) 
CC(=O)C(Br)=CC=CCc1ccccc1

$$$$
Candidata_022
     RDKit          3D

 20 20  0  0  0  0  0  0  0  0999 V2000
    5.4137   -1.1341   -0.7739 O   0  0  0  0  0  0  0  0  0  0  0  0
    3.9442   -0.3675   -0.3547 B   0  0  0  0  0  0  0  0  0  0  0  0
    2.4152    0.3710   -0.3604 C   0  0  0  0  0  0  0  0  0  0  0  0
    1.3415   -0.5087   -0.0629 O   0  0  0  0  0  0  0  0  0  0  0  0
    0.0677    0.0494   -0.0501 C   0  0  0  0  0  0  0  0  0  0  0  0
   -0.1916    1.3677   -0.3028 C   0  0  0  0  0  0  0  0  0  0  0  0
   -1.4673    1.9057   -0.2852 C   0  0  0  0  0  0  0  0  0  0  0  0
   -1.7794    3.7584   -0.6417 Br  0  0  0  0  0  0  0  0  0  0  0  0
   -2.5130    1.0557    0.0023 C   0  0  0  0  0  0  0  0  0  0  0  0
   -2.3035   -0.2965    0.2673 C   0  0  0  0  0  0  0  0  0  0  0  0
   -1.0005   -0.7876    0.2371 C   0  0  0  0  0  0  0  0  0  0  0  0
   -0.7364   -2.2265    0.5128 C   0  0  0  0  0  0  0  0  0  0  0  0
   -0.0109   -2.3411    2.3219 Br  0  0  0  0  0  0  0  0  0  0  0  0
    2.3915    1.1484    0.4496 H   0  0  0  0  0  0  0  0  0  0  0  0
    2.1348    0.9054   -1.2967 H   0  0  0  0  0  0  0  0  0  0  0  0
    0.6084    2.0317   -0.5265 H   0  0  0  0  0  0  0  0  0  0  0  0
   -3.5032    1.4808    0.0163 H   0  0  0  0  0  0  0  0  0  0  0  0
   -3.1122   -0.9635    0.4949 H   0  0  0  0  0  0  0  0  0  0  0  0
    0.0070   -2.6791   -0.1498 H   0  0  0  0  0  0  0  0  0  0  0  0
   -1.7060   -2.7695    0.5023 H   0  0  0  0  0  0  0  0  0  0  0  0
  1  2  2  0
  2  3  1  0
  3  4  1  0
  4  5  1  0
  5  6  1  0
  6  7  2  0
  7  8  1  0
  7  9  1  0
  9 10  2  0
 10 11  1  0
 11 12  1  0
 12 13  1  0
 11  5  2  0
  3 14  1  0
  3 15  1  0
  6 16  1  0
  9 17  1  0
 10 18  1  0
 12 19  1  0
 12 20  1  0
M  END
>  <Rank>  (22) 
22

>  <Score>  (22) 
0.5160

>  <Pharma_Score>  (22) 
0.5000

>  <QED>  (22) 
0.6310

>  <MW>  (22) 
305.76

>  <LogP>  (22) 
2.73

>  <PSA>  (22) 
26.3

>  <SA_Score>  (22) 
3.25

>  <HBD>  (22) 
0

>  <HBA>  (22) 
2

>  <Lip_Violations>  (22) 
0

>  <SMILES>  (22) 
O=BCOc1cc(Br)ccc1CBr

$$$$
Candidata_023
     RDKit          3D

 25 26  0  0  0  0  0  0  0  0999 V2000
    3.2333   -2.5623   -0.0969 O   0  0  0  0  0  0  0  0  0  0  0  0
    2.8302   -1.3982   -0.1133 C   0  0  0  0  0  0  0  0  0  0  0  0
    3.6689   -0.3814    0.5852 C   0  0  0  0  0  0  0  0  0  0  0  0
    3.5635    0.9515    0.7473 C   0  0  0  0  0  0  0  0  0  0  0  0
    2.5019    1.7663    0.2282 C   0  0  0  0  0  0  0  0  0  0  0  0
    2.3913    3.5792    0.4837 Br  0  0  0  0  0  0  0  0  0  0  0  0
    1.5714    1.1648   -0.4270 C   0  0  0  0  0  0  0  0  0  0  0  0
    0.9742    0.1409   -0.9336 C   0  0  0  0  0  0  0  0  0  0  0  0
   -0.3434    0.0869   -1.6342 C   0  0  0  0  0  0  0  0  0  0  0  0
   -1.5020   -0.0911   -0.6813 C   0  0  0  0  0  0  0  0  0  0  0  0
   -1.8836   -1.3727   -0.2586 C   0  0  0  0  0  0  0  0  0  0  0  0
   -2.9404   -1.5363    0.6382 C   0  0  0  0  0  0  0  0  0  0  0  0
   -3.6216   -0.4223    1.1252 C   0  0  0  0  0  0  0  0  0  0  0  0
   -3.2451    0.8566    0.7190 C   0  0  0  0  0  0  0  0  0  0  0  0
   -2.1885    1.0231   -0.1776 C   0  0  0  0  0  0  0  0  0  0  0  0
    1.6590   -1.0966   -0.7565 O   0  0  0  0  0  0  0  0  0  0  0  0
    4.5366   -0.8584    1.0407 H   0  0  0  0  0  0  0  0  0  0  0  0
    4.3348    1.4673    1.3152 H   0  0  0  0  0  0  0  0  0  0  0  0
   -0.3448   -0.7344   -2.3623 H   0  0  0  0  0  0  0  0  0  0  0  0
   -0.4919    0.9992   -2.2264 H   0  0  0  0  0  0  0  0  0  0  0  0
   -1.3556   -2.2516   -0.6233 H   0  0  0  0  0  0  0  0  0  0  0  0
   -3.2297   -2.5336    0.9592 H   0  0  0  0  0  0  0  0  0  0  0  0
   -4.4435   -0.5509    1.8244 H   0  0  0  0  0  0  0  0  0  0  0  0
   -3.7730    1.7255    1.1032 H   0  0  0  0  0  0  0  0  0  0  0  0
   -1.9022    2.0285   -0.4787 H   0  0  0  0  0  0  0  0  0  0  0  0
  1  2  2  0
  2  3  1  0
  3  4  2  0
  4  5  1  0
  5  6  1  0
  5  7  2  0
  7  8  2  0
  8  9  1  0
  9 10  1  0
 10 11  2  0
 11 12  1  0
 12 13  2  0
 13 14  1  0
 14 15  2  0
  8 16  1  0
 16  2  1  0
 15 10  1  0
  3 17  1  0
  4 18  1  0
  9 19  1  0
  9 20  1  0
 11 21  1  0
 12 22  1  0
 13 23  1  0
 14 24  1  0
 15 25  1  0
M  END
>  <Rank>  (23) 
23

>  <Score>  (23) 
0.5050

>  <Pharma_Score>  (23) 
0.5000

>  <QED>  (23) 
0.6130

>  <MW>  (23) 
277.12

>  <LogP>  (23) 
3.10

>  <PSA>  (23) 
26.3

>  <SA_Score>  (23) 
3.37

>  <HBD>  (23) 
0

>  <HBA>  (23) 
2

>  <Lip_Violations>  (23) 
0

>  <SMILES>  (23) 
O=C1C=CC(Br)=C=C(Cc2ccccc2)O1

$$$$
Candidata_024
     RDKit          3D

 28 29  0  0  0  0  0  0  0  0999 V2000
   -3.9195    2.0350   -0.0482 O   0  0  0  0  0  0  0  0  0  0  0  0
   -2.9014    2.2666   -0.7703 C   0  0  0  0  0  0  0  0  0  0  0  0
   -2.7645    3.2343   -1.5779 O   0  0  0  0  0  1  0  0  0  0  0  0
   -1.8357    1.4522   -0.6862 O   0  0  0  0  0  0  0  0  0  0  0  0
   -1.8999    0.2171   -0.1175 C   0  0  0  0  0  0  0  0  0  0  0  0
   -2.9078   -0.6906   -0.4578 C   0  0  0  0  0  0  0  0  0  0  0  0
   -2.9007   -1.9716    0.0872 C   0  0  0  0  0  0  0  0  0  0  0  0
   -4.2679   -3.1983   -0.3667 Br  0  0  0  0  0  0  0  0  0  0  0  0
   -1.8871   -2.3656    0.9579 C   0  0  0  0  0  0  0  0  0  0  0  0
   -0.8704   -1.4675    1.2857 C   0  0  0  0  0  0  0  0  0  0  0  0
   -0.8629   -0.1676    0.7507 C   0  0  0  0  0  0  0  0  0  0  0  0
    0.2570    0.7841    1.1103 C   0  0  0  0  0  0  0  0  0  0  0  0
    1.5372    0.5355    0.3427 C   0  0  0  0  0  0  0  0  0  0  0  0
    1.6612    0.9806   -0.9811 C   0  0  0  0  0  0  0  0  0  0  0  0
    2.8341    0.7486   -1.7004 C   0  0  0  0  0  0  0  0  0  0  0  0
    3.8947    0.0680   -1.1053 C   0  0  0  0  0  0  0  0  0  0  0  0
    3.7824   -0.3823    0.2093 C   0  0  0  0  0  0  0  0  0  0  0  0
    2.6090   -0.1513    0.9303 C   0  0  0  0  0  0  0  0  0  0  0  0
   -3.6964   -0.3819   -1.1388 H   0  0  0  0  0  0  0  0  0  0  0  0
   -1.8776   -3.3650    1.3812 H   0  0  0  0  0  0  0  0  0  0  0  0
   -0.0776   -1.7834    1.9583 H   0  0  0  0  0  0  0  0  0  0  0  0
   -0.0486    1.8289    0.9714 H   0  0  0  0  0  0  0  0  0  0  0  0
    0.4511    0.7040    2.1888 H   0  0  0  0  0  0  0  0  0  0  0  0
    0.8342    1.5090   -1.4563 H   0  0  0  0  0  0  0  0  0  0  0  0
    2.9116    1.0990   -2.7259 H   0  0  0  0  0  0  0  0  0  0  0  0
    4.8057   -0.1127   -1.6680 H   0  0  0  0  0  0  0  0  0  0  0  0
    4.6071   -0.9153    0.6732 H   0  0  0  0  0  0  0  0  0  0  0  0
    2.5325   -0.5098    1.9534 H   0  0  0  0  0  0  0  0  0  0  0  0
  1  2  2  0
  2  3  1  0
  2  4  1  0
  4  5  1  0
  5  6  1  0
  6  7  2  0
  7  8  1  0
  7  9  1  0
  9 10  2  0
 10 11  1  0
 11 12  1  0
 12 13  1  0
 13 14  2  0
 14 15  1  0
 15 16  2  0
 16 17  1  0
 17 18  2  0
 11  5  2  0
 18 13  1  0
  6 19  1  0
  9 20  1  0
 10 21  1  0
 12 22  1  0
 12 23  1  0
 14 24  1  0
 15 25  1  0
 16 26  1  0
 17 27  1  0
 18 28  1  0
M  CHG  1   3   1
M  RAD  1   3   3
M  END
>  <Rank>  (24) 
24

>  <Score>  (24) 
0.5000

>  <Pharma_Score>  (24) 
0.5000

>  <QED>  (24) 
0.4890

>  <MW>  (24) 
306.13

>  <LogP>  (24) 
3.97

>  <PSA>  (24) 
46.2

>  <SA_Score>  (24) 
2.41

>  <HBD>  (24) 
0

>  <HBA>  (24) 
2

>  <Lip_Violations>  (24) 
0

>  <SMILES>  (24) 
O=C([O+])Oc1cc(Br)ccc1Cc1ccccc1

$$$$
Candidata_025
     RDKit          3D

 13 12  0  0  0  0  0  0  0  0999 V2000
    1.9942   -0.1578    0.0237 C   0  0  0  0  0  0  0  0  0  0  0  0
    0.5507   -0.5848   -0.0889 C   0  0  0  0  0  0  0  0  0  0  0  0
    0.2646   -1.7403   -0.4078 O   0  0  0  0  0  0  0  0  0  0  0  0
   -0.5053    0.4680    0.2000 C   0  0  0  0  0  0  0  0  0  0  0  0
   -1.8742    0.0983   -0.3392 C   0  0  0  0  0  0  0  0  0  0  0  0
   -0.6070    0.6564    2.1383 Br  0  0  0  0  0  0  0  0  0  0  0  0
    2.1644    0.7287   -0.5925 H   0  0  0  0  0  0  0  0  0  0  0  0
    2.2476    0.0518    1.0649 H   0  0  0  0  0  0  0  0  0  0  0  0
    2.6418   -0.9605   -0.3408 H   0  0  0  0  0  0  0  0  0  0  0  0
   -0.1848    1.4324   -0.2045 H   0  0  0  0  0  0  0  0  0  0  0  0
   -2.6107    0.8779   -0.1163 H   0  0  0  0  0  0  0  0  0  0  0  0
   -1.8378   -0.0297   -1.4265 H   0  0  0  0  0  0  0  0  0  0  0  0
   -2.2435   -0.8404    0.0895 H   0  0  0  0  0  0  0  0  0  0  0  0
  1  2  1  0
  2  3  2  0
  2  4  1  0
  4  5  1  0
  4  6  1  0
  1  7  1  0
  1  8  1  0
  1  9  1  0
  4 10  1  0
  5 11  1  0
  5 12  1  0
  5 13  1  0
M  END
>  <Rank>  (25) 
25

>  <Score>  (25) 
0.4910

>  <Pharma_Score>  (25) 
0.5000

>  <QED>  (25) 
0.5170

>  <MW>  (25) 
151.00

>  <LogP>  (25) 
1.36

>  <PSA>  (25) 
17.1

>  <SA_Score>  (25) 
2.87

>  <HBD>  (25) 
0

>  <HBA>  (25) 
1

>  <Lip_Violations>  (25) 
0

>  <SMILES>  (25) 
CC(=O)C(C)Br

$$$$
Candidata_026
     RDKit          3D

 26 27  0  0  0  0  0  0  0  0999 V2000
    6.2116    0.8081    0.9141 O   0  0  0  0  0  0  0  0  0  0  0  0
    5.3245    0.4381    0.1995 C   0  0  0  0  0  0  0  0  0  0  0  0
    4.7716    0.5170   -0.9767 O   0  0  0  0  0  0  0  0  0  0  0  0
    4.1354   -0.3114    0.1388 C   0  0  0  0  0  0  0  0  0  0  0  0
    4.3109   -2.2029   -0.0643 Br  0  0  0  0  0  0  0  0  0  0  0  0
    2.8288    0.2330    0.6307 C   0  0  0  0  0  0  0  0  0  0  0  0
    1.6761    0.0781   -0.3269 C   0  0  0  0  0  0  0  0  0  0  0  0
    0.5673   -0.6312   -0.0596 C   0  0  0  0  0  0  0  0  0  0  0  0
   -0.5878   -0.7839   -1.0109 C   0  0  0  0  0  0  0  0  0  0  0  0
   -1.8783   -0.2601   -0.4280 C   0  0  0  0  0  0  0  0  0  0  0  0
   -2.7885   -1.1298    0.1893 C   0  0  0  0  0  0  0  0  0  0  0  0
   -3.9735   -0.6391    0.7405 C   0  0  0  0  0  0  0  0  0  0  0  0
   -4.2576    0.7241    0.6854 C   0  0  0  0  0  0  0  0  0  0  0  0
   -3.3567    1.5990    0.0813 C   0  0  0  0  0  0  0  0  0  0  0  0
   -2.1714    1.1106   -0.4707 C   0  0  0  0  0  0  0  0  0  0  0  0
    2.9320    1.3048    0.8464 H   0  0  0  0  0  0  0  0  0  0  0  0
    2.5922   -0.2380    1.5934 H   0  0  0  0  0  0  0  0  0  0  0  0
    1.7701    0.5910   -1.2829 H   0  0  0  0  0  0  0  0  0  0  0  0
    0.4680   -1.1442    0.8955 H   0  0  0  0  0  0  0  0  0  0  0  0
   -0.6990   -1.8463   -1.2616 H   0  0  0  0  0  0  0  0  0  0  0  0
   -0.3913   -0.2733   -1.9622 H   0  0  0  0  0  0  0  0  0  0  0  0
   -2.5797   -2.1957    0.2443 H   0  0  0  0  0  0  0  0  0  0  0  0
   -4.6746   -1.3210    1.2146 H   0  0  0  0  0  0  0  0  0  0  0  0
   -5.1801    1.1051    1.1153 H   0  0  0  0  0  0  0  0  0  0  0  0
   -3.5758    2.6628    0.0417 H   0  0  0  0  0  0  0  0  0  0  0  0
   -1.4739    1.8052   -0.9335 H   0  0  0  0  0  0  0  0  0  0  0  0
  1  2  2  0
  2  3  1  0
  3  4  1  0
  4  5  1  0
  4  6  1  0
  6  7  1  0
  7  8  2  3
  8  9  1  0
  9 10  1  0
 10 11  2  0
 11 12  1  0
 12 13  2  0
 13 14  1  0
 14 15  2  0
  4  2  1  0
 15 10  1  0
  6 16  1  0
  6 17  1  0
  7 18  1  0
  8 19  1  0
  9 20  1  0
  9 21  1  0
 11 22  1  0
 12 23  1  0
 13 24  1  0
 14 25  1  0
 15 26  1  0
M  END
>  <Rank>  (26) 
26

>  <Score>  (26) 
0.4620

>  <Pharma_Score>  (26) 
0.5000

>  <QED>  (26) 
0.4770

>  <MW>  (26) 
267.12

>  <LogP>  (26) 
2.82

>  <PSA>  (26) 
29.6

>  <SA_Score>  (26) 
3.25

>  <HBD>  (26) 
0

>  <HBA>  (26) 
2

>  <Lip_Violations>  (26) 
0

>  <SMILES>  (26) 
O=C1OC1(Br)CC=CCc1ccccc1

$$$$
Candidata_027
     RDKit          3D

  3  2  0  0  0  0  0  0  0  0999 V2000
   -0.3739    0.4400    0.0000 O   0  0  0  0  0  0  0  0  0  0  0  0
    1.3504   -0.1172    0.0000 Br  0  0  0  0  0  0  0  0  0  0  0  0
   -0.9765   -0.3227    0.0000 H   0  0  0  0  0  0  0  0  0  0  0  0
  1  2  1  0
  1  3  1  0
M  END
>  <Rank>  (27) 
27

>  <Score>  (27) 
0.4370

>  <Pharma_Score>  (27) 
0.5000

>  <QED>  (27) 
0.4600

>  <MW>  (27) 
96.91

>  <LogP>  (27) 
0.29

>  <PSA>  (27) 
20.2

>  <SA_Score>  (27) 
3.72

>  <HBD>  (27) 
1

>  <HBA>  (27) 
1

>  <Lip_Violations>  (27) 
0

>  <SMILES>  (27) 
OBr

$$$$
Candidata_028
     RDKit          3D

 15 14  0  0  0  0  0  0  0  0999 V2000
    2.9345   -0.0867    0.5349 C   0  0  0  0  0  0  0  0  0  0  0  0
    1.9757   -0.0942   -0.3984 C   0  0  0  0  0  0  0  0  0  0  0  0
    0.5678   -0.0245   -0.0805 C   0  0  0  0  0  0  0  0  0  0  0  0
   -0.3827   -0.0329   -1.0255 C   0  0  0  0  0  0  0  0  0  0  0  0
   -1.8436    0.0368   -0.7510 C   0  0  0  0  0  0  0  0  0  0  0  0
   -2.3376    0.1239    0.6688 C   0  0  0  0  0  0  0  0  0  0  0  0
   -2.6219    0.0213   -1.7041 O   0  0  0  0  0  0  0  0  0  0  0  0
    2.7139   -0.0274    1.5960 H   0  0  0  0  0  0  0  0  0  0  0  0
    3.9807   -0.1409    0.2486 H   0  0  0  0  0  0  0  0  0  0  0  0
    2.2625   -0.1555   -1.4470 H   0  0  0  0  0  0  0  0  0  0  0  0
    0.3110    0.0359    0.9740 H   0  0  0  0  0  0  0  0  0  0  0  0
   -0.1373   -0.0930   -2.0819 H   0  0  0  0  0  0  0  0  0  0  0  0
   -3.4311    0.1662    0.6681 H   0  0  0  0  0  0  0  0  0  0  0  0
   -1.9611    1.0335    1.1438 H   0  0  0  0  0  0  0  0  0  0  0  0
   -2.0307   -0.7626    1.2297 H   0  0  0  0  0  0  0  0  0  0  0  0
  1  2  2  0
  2  3  1  0
  3  4  2  3
  4  5  1  0
  5  6  1  0
  5  7  2  0
  1  8  1  0
  1  9  1  0
  2 10  1  0
  3 11  1  0
  4 12  1  0
  6 13  1  0
  6 14  1  0
  6 15  1  0
M  END
>  <Rank>  (28) 
28

>  <Score>  (28) 
0.4340

>  <Pharma_Score>  (28) 
0.5000

>  <QED>  (28) 
0.3740

>  <MW>  (28) 
96.13

>  <LogP>  (28) 
1.32

>  <PSA>  (28) 
17.1

>  <SA_Score>  (28) 
3.05

>  <HBD>  (28) 
0

>  <HBA>  (28) 
1

>  <Lip_Violations>  (28) 
0

>  <SMILES>  (28) 
C=CC=CC(C)=O

$$$$
Candidata_029
     RDKit          3D

  4  3  0  0  0  0  0  0  0  0999 V2000
   -0.0119    0.0016    0.0029 C   0  0  0  0  0  0  0  0  0  0  0  0
    1.1666   -0.1582   -0.2895 O   0  0  0  0  0  0  0  0  0  0  0  0
   -0.7217   -0.8388    0.0627 H   0  0  0  0  0  0  0  0  0  0  0  0
   -0.4330    0.9954    0.2238 H   0  0  0  0  0  0  0  0  0  0  0  0
  1  2  2  0
  1  3  1  0
  1  4  1  0
M  END
>  <Rank>  (29) 
29

>  <Score>  (29) 
0.2770

>  <Pharma_Score>  (29) 
0.2500

>  <QED>  (29) 
0.3610

>  <MW>  (29) 
30.03

>  <LogP>  (29) 
-0.18

>  <PSA>  (29) 
17.1

>  <SA_Score>  (29) 
4.04

>  <HBD>  (29) 
0

>  <HBA>  (29) 
1

>  <Lip_Violations>  (29) 
0

>  <SMILES>  (29) 
C=O

$$$$
