Candidata_001
     RDKit          3D

 17 18  0  0  0  0  0  0  0  0999 V2000
   -1.5909   -0.4401   -2.5824 O   0  0  0  0  0  0  0  0  0  0  0  0
   -1.5490   -0.7589   -1.4089 C   0  0  0  0  0  0  0  0  0  0  0  0
   -1.4164   -2.0421   -1.0353 O   0  0  0  0  0  0  0  0  0  0  0  0
   -1.7687    0.1481   -0.2600 C   0  0  0  0  0  0  0  0  0  0  0  0
   -2.7589    1.1268   -0.4451 C   0  0  0  0  0  0  0  0  0  0  0  0
   -3.0544    2.0219    0.5782 C   0  0  0  0  0  0  0  0  0  0  0  0
   -4.3969    3.3282    0.3262 Br  0  0  0  0  0  0  0  0  0  0  0  0
   -2.3693    1.9607    1.7869 C   0  0  0  0  0  0  0  0  0  0  0  0
   -1.3703    1.0022    1.9694 C   0  0  0  0  0  0  0  0  0  0  0  0
   -1.0445    0.0860    0.9494 C   0  0  0  0  0  0  0  0  0  0  0  0
    0.0936   -0.8853    1.1960 C   0  0  0  0  0  0  0  0  0  0  0  0
    1.3107   -0.6738    0.3213 C   0  0  0  0  0  0  0  0  0  0  0  0
    1.8598   -1.7491   -0.3925 C   0  0  0  0  0  0  0  0  0  0  0  0
    2.9926   -1.5703   -1.1883 C   0  0  0  0  0  0  0  0  0  0  0  0
    3.5954   -0.3173   -1.2726 C   0  0  0  0  0  0  0  0  0  0  0  0
    3.0691    0.7564   -0.5579 C   0  0  0  0  0  0  0  0  0  0  0  0
    1.9367    0.5792    0.2389 C   0  0  0  0  0  0  0  0  0  0  0  0
  1  2  2  0
  2  3  1  0
  2  4  1  0
  4  5  1  0
  5  6  2  0
  6  7  1  0
  6  8  1  0
  8  9  2  0
  9 10  1  0
 10 11  1  0
 11 12  1  0
 12 13  2  0
 13 14  1  0
 14 15  2  0
 15 16  1  0
 16 17  2  0
 10  4  2  0
 17 12  1  0
M  END
>  <Rank>  (1) 
1

>  <Score>  (1) 
0.9110

>  <Pharma_Score>  (1) 
1.0000

>  <QED>  (1) 
0.9350

>  <MW>  (1) 
291.14

>  <LogP>  (1) 
3.74

>  <PSA>  (1) 
37.3

>  <SA_Score>  (1) 
1.66

>  <HBD>  (1) 
1

>  <HBA>  (1) 
1

>  <Lip_Violations>  (1) 
0

>  <SMILES>  (1) 
O=C(O)c1cc(Br)ccc1Cc1ccccc1

$$$$
Candidata_002
     RDKit          3D

 18 19  0  0  0  0  0  0  0  0999 V2000
   -0.6180    0.0231   -2.5622 N   0  0  0  0  0  0  0  0  0  0  0  0
   -0.1466   -0.4646   -1.2523 C   0  0  0  0  0  0  0  0  0  0  0  0
   -1.3050   -0.3525   -0.2651 C   0  0  0  0  0  0  0  0  0  0  0  0
   -1.6264    0.8635    0.3623 C   0  0  0  0  0  0  0  0  0  0  0  0
   -2.7061    0.9458    1.2433 C   0  0  0  0  0  0  0  0  0  0  0  0
   -3.4862   -0.1795    1.4997 C   0  0  0  0  0  0  0  0  0  0  0  0
   -3.1916   -1.3882    0.8732 C   0  0  0  0  0  0  0  0  0  0  0  0
   -2.1118   -1.4738   -0.0071 C   0  0  0  0  0  0  0  0  0  0  0  0
    1.1479    0.2075   -0.7819 C   0  0  0  0  0  0  0  0  0  0  0  0
    1.7388    1.2473   -1.5332 C   0  0  0  0  0  0  0  0  0  0  0  0
    2.8900    1.9086   -1.0939 C   0  0  0  0  0  0  0  0  0  0  0  0
    3.4786    1.5447    0.1103 C   0  0  0  0  0  0  0  0  0  0  0  0
    5.0259    2.4474    0.7113 Br  0  0  0  0  0  0  0  0  0  0  0  0
    2.9381    0.5145    0.8705 C   0  0  0  0  0  0  0  0  0  0  0  0
    1.7929   -0.1666    0.4220 C   0  0  0  0  0  0  0  0  0  0  0  0
    1.3321   -1.2596    1.3073 C   0  0  0  0  0  0  0  0  0  0  0  0
    1.3210   -1.2307    2.5235 O   0  0  0  0  0  0  0  0  0  0  0  0
    1.0279   -2.3763    0.6269 O   0  0  0  0  0  0  0  0  0  0  0  0
  1  2  1  0
  2  3  1  0
  3  4  2  0
  4  5  1  0
  5  6  2  0
  6  7  1  0
  7  8  2  0
  2  9  1  0
  9 10  1  0
 10 11  2  0
 11 12  1  0
 12 13  1  0
 12 14  2  0
 14 15  1  0
 15 16  1  0
 16 17  2  0
 16 18  1  0
  8  3  1  0
 15  9  2  0
M  END
>  <Rank>  (2) 
2

>  <Score>  (2) 
0.8750

>  <Pharma_Score>  (2) 
1.0000

>  <QED>  (2) 
0.9150

>  <MW>  (2) 
306.16

>  <LogP>  (2) 
3.20

>  <PSA>  (2) 
63.3

>  <SA_Score>  (2) 
2.39

>  <HBD>  (2) 
2

>  <HBA>  (2) 
2

>  <Lip_Violations>  (2) 
0

>  <SMILES>  (2) 
NC(c1ccccc1)c1ccc(Br)cc1C(=O)O

$$$$
Candidata_003
     RDKit          3D

 12 12  0  0  0  0  0  0  0  0999 V2000
   -0.1748    3.0367    0.1307 O   0  0  0  0  0  0  0  0  0  0  0  0
   -0.5542    1.9618   -0.2945 C   0  0  0  0  0  0  0  0  0  0  0  0
   -1.6331    1.8654   -1.0860 O   0  0  0  0  0  0  0  0  0  0  0  0
    0.1442    0.6670   -0.1127 C   0  0  0  0  0  0  0  0  0  0  0  0
    1.5474    0.7424   -0.0864 C   0  0  0  0  0  0  0  0  0  0  0  0
    2.3068   -0.4109    0.0829 C   0  0  0  0  0  0  0  0  0  0  0  0
    4.1933   -0.3002    0.1053 Br  0  0  0  0  0  0  0  0  0  0  0  0
    1.6859   -1.6448    0.2377 C   0  0  0  0  0  0  0  0  0  0  0  0
    0.2915   -1.7243    0.2300 C   0  0  0  0  0  0  0  0  0  0  0  0
   -0.5064   -0.5747    0.0574 C   0  0  0  0  0  0  0  0  0  0  0  0
   -1.9994   -0.7397    0.1181 C   0  0  0  0  0  0  0  0  0  0  0  0
   -2.6619   -0.1028    1.8319 Br  0  0  0  0  0  0  0  0  0  0  0  0
  1  2  2  0
  2  3  1  0
  2  4  1  0
  4  5  1  0
  5  6  2  0
  6  7  1  0
  6  8  1  0
  8  9  2  0
  9 10  1  0
 10 11  1  0
 11 12  1  0
 10  4  2  0
M  END
>  <Rank>  (3) 
3

>  <Score>  (3) 
0.8640

>  <Pharma_Score>  (3) 
1.0000

>  <QED>  (3) 
0.8510

>  <MW>  (3) 
293.94

>  <LogP>  (3) 
3.04

>  <PSA>  (3) 
37.3

>  <SA_Score>  (3) 
2.09

>  <HBD>  (3) 
1

>  <HBA>  (3) 
1

>  <Lip_Violations>  (3) 
0

>  <SMILES>  (3) 
O=C(O)c1cc(Br)ccc1CBr

$$$$
Candidata_004
     RDKit          3D

 15 15  0  0  0  0  0  0  0  0999 V2000
    4.5035    0.7173   -0.8788 C   0  0  0  0  0  0  0  0  0  0  0  0
    3.2995    0.1586   -0.7065 C   0  0  0  0  0  0  0  0  0  0  0  0
    2.6851    0.0163    0.5916 C   0  0  0  0  0  0  0  0  0  0  0  0
    1.4836   -0.5229    0.8542 C   0  0  0  0  0  0  0  0  0  0  0  0
    0.4926   -1.1254   -0.1024 C   0  0  0  0  0  0  0  0  0  0  0  0
   -0.7510   -0.2734   -0.2558 C   0  0  0  0  0  0  0  0  0  0  0  0
   -0.7254    0.7551   -1.2199 C   0  0  0  0  0  0  0  0  0  0  0  0
   -1.8331    1.5772   -1.4291 C   0  0  0  0  0  0  0  0  0  0  0  0
   -2.9827    1.3862   -0.6719 C   0  0  0  0  0  0  0  0  0  0  0  0
   -4.4846    2.4998   -0.9511 Br  0  0  0  0  0  0  0  0  0  0  0  0
   -3.0329    0.3866    0.2964 C   0  0  0  0  0  0  0  0  0  0  0  0
   -1.9206   -0.4462    0.5154 C   0  0  0  0  0  0  0  0  0  0  0  0
   -2.0094   -1.4733    1.5888 C   0  0  0  0  0  0  0  0  0  0  0  0
   -1.0971   -1.9362    2.2446 O   0  0  0  0  0  0  0  0  0  0  0  0
   -3.2748   -1.8924    1.7776 O   0  0  0  0  0  0  0  0  0  0  0  0
  1  2  2  0
  2  3  1  0
  3  4  2  3
  4  5  1  0
  5  6  1  0
  6  7  1  0
  7  8  2  0
  8  9  1  0
  9 10  1  0
  9 11  2  0
 11 12  1  0
 12 13  1  0
 13 14  2  0
 13 15  1  0
 12  6  2  0
M  END
>  <Rank>  (4) 
4

>  <Score>  (4) 
0.8430

>  <Pharma_Score>  (4) 
1.0000

>  <QED>  (4) 
0.8480

>  <MW>  (4) 
267.12

>  <LogP>  (4) 
3.43

>  <PSA>  (4) 
37.3

>  <SA_Score>  (4) 
2.60

>  <HBD>  (4) 
1

>  <HBA>  (4) 
1

>  <Lip_Violations>  (4) 
0

>  <SMILES>  (4) 
C=CC=CCc1ccc(Br)cc1C(=O)O

$$$$
Candidata_005
     RDKit          3D

 18 19  0  0  0  0  0  0  0  0999 V2000
    1.5660   -1.0426    3.8510 O   0  0  0  0  0  0  0  0  0  0  0  0
    1.9292   -0.5690    2.7868 C   0  0  0  0  0  0  0  0  0  0  0  0
    3.0344    0.1797    2.7058 O   0  0  0  0  0  0  0  0  0  0  0  0
    1.1847   -0.7422    1.5328 C   0  0  0  0  0  0  0  0  0  0  0  0
    1.6058   -0.4680    0.2857 C   0  0  0  0  0  0  0  0  0  0  0  0
    2.8999    0.0277    0.0901 O   0  0  0  0  0  0  0  0  0  0  0  0
    3.3901    0.2863   -1.1804 C   0  0  0  0  0  0  0  0  0  0  0  0
    5.1371    0.9376   -1.2970 Br  0  0  0  0  0  0  0  0  0  0  0  0
    2.6491    0.0772   -2.2760 C   0  0  0  0  0  0  0  0  0  0  0  0
    1.3085   -0.4219   -2.1384 C   0  0  0  0  0  0  0  0  0  0  0  0
    0.7838   -0.6785   -0.9239 C   0  0  0  0  0  0  0  0  0  0  0  0
   -0.6377   -1.2073   -0.8277 C   0  0  0  0  0  0  0  0  0  0  0  0
   -1.6476   -0.2425   -0.2381 C   0  0  0  0  0  0  0  0  0  0  0  0
   -1.7144    1.0950   -0.6565 C   0  0  0  0  0  0  0  0  0  0  0  0
   -2.6677    1.9618   -0.1185 C   0  0  0  0  0  0  0  0  0  0  0  0
   -3.5740    1.5003    0.8332 C   0  0  0  0  0  0  0  0  0  0  0  0
   -3.5322    0.1702    1.2439 C   0  0  0  0  0  0  0  0  0  0  0  0
   -2.5797   -0.6981    0.7074 C   0  0  0  0  0  0  0  0  0  0  0  0
  1  2  2  0
  2  3  1  0
  2  4  1  0
  4  5  2  3
  5  6  1  0
  6  7  1  0
  7  8  1  0
  7  9  2  0
  9 10  1  0
 10 11  2  0
 11 12  1  0
 12 13  1  0
 13 14  2  0
 14 15  1  0
 15 16  2  0
 16 17  1  0
 17 18  2  0
 11  5  1  0
 18 13  1  0
M  END
>  <Rank>  (5) 
5

>  <Score>  (5) 
0.8310

>  <Pharma_Score>  (5) 
1.0000

>  <QED>  (5) 
0.8710

>  <MW>  (5) 
307.14

>  <LogP>  (5) 
3.39

>  <PSA>  (5) 
46.5

>  <SA_Score>  (5) 
3.10

>  <HBD>  (5) 
1

>  <HBA>  (5) 
2

>  <Lip_Violations>  (5) 
0

>  <SMILES>  (5) 
O=C(O)C=C1OC(Br)=CC=C1Cc1ccccc1

$$$$
Candidata_006
     RDKit          3D

 19 20  0  0  0  0  0  0  0  0999 V2000
    1.2734    2.2837    0.8037 C   0  0  0  0  0  1  0  0  0  0  0  0
    1.7993    0.8273    0.7147 C   0  0  0  0  0  0  0  0  0  0  0  0
    2.7446    0.4483    1.6785 C   0  0  0  0  0  0  0  0  0  0  0  0
    3.3328   -0.8156    1.6432 C   0  0  0  0  0  0  0  0  0  0  0  0
    2.9859   -1.7041    0.6329 C   0  0  0  0  0  0  0  0  0  0  0  0
    2.0442   -1.3330   -0.3297 C   0  0  0  0  0  0  0  0  0  0  0  0
    1.4150   -0.0678   -0.2990 C   0  0  0  0  0  0  0  0  0  0  0  0
    0.3839    0.2522   -1.3780 C   0  0  0  0  0  0  0  0  0  0  0  0
    0.8985    1.2963   -2.2823 N   0  0  0  0  0  0  0  0  0  0  0  0
   -1.0319    0.5277   -0.8534 C   0  0  0  0  0  0  0  0  0  0  0  0
   -1.6120    1.8103   -0.9712 C   0  0  0  0  0  0  0  0  0  0  0  0
   -2.8827    2.0951   -0.4614 C   0  0  0  0  0  0  0  0  0  0  0  0
   -3.6096    1.0990    0.1753 C   0  0  0  0  0  0  0  0  0  0  0  0
   -5.3267    1.4811    0.8655 Br  0  0  0  0  0  0  0  0  0  0  0  0
   -3.0835   -0.1815    0.2970 C   0  0  0  0  0  0  0  0  0  0  0  0
   -1.8061   -0.4724   -0.2172 C   0  0  0  0  0  0  0  0  0  0  0  0
   -1.3438   -1.8760   -0.1106 C   0  0  0  0  0  0  0  0  0  0  0  0
   -0.7593   -2.5184   -0.9603 O   0  0  0  0  0  0  0  0  0  0  0  0
   -1.6357   -2.3991    1.0936 O   0  0  0  0  0  0  0  0  0  0  0  0
  1  2  1  0
  2  3  2  0
  3  4  1  0
  4  5  2  0
  5  6  1  0
  6  7  2  0
  7  8  1  0
  8  9  1  0
  8 10  1  0
 10 11  1  0
 11 12  2  0
 12 13  1  0
 13 14  1  0
 13 15  2  0
 15 16  1  0
 16 17  1  0
 17 18  2  0
 17 19  1  0
  7  2  1  0
 16 10  2  0
M  CHG  1   1   1
M  RAD  1   1   3
M  END
>  <Rank>  (6) 
6

>  <Score>  (6) 
0.8160

>  <Pharma_Score>  (6) 
1.0000

>  <QED>  (6) 
0.8550

>  <MW>  (6) 
317.16

>  <LogP>  (6) 
3.13

>  <PSA>  (6) 
63.3

>  <SA_Score>  (6) 
3.32

>  <HBD>  (6) 
2

>  <HBA>  (6) 
2

>  <Lip_Violations>  (6) 
0

>  <SMILES>  (6) 
[C+]c1ccccc1C(N)c1ccc(Br)cc1C(=O)O

$$$$
Candidata_007
     RDKit          3D

 12 12  0  0  0  0  0  0  0  0999 V2000
   -1.0700    2.8390    0.0972 O   0  0  0  0  0  0  0  0  0  0  0  0
   -1.1411    1.6857   -0.2958 C   0  0  0  0  0  0  0  0  0  0  0  0
   -2.1635    1.2764   -1.0710 O   0  0  0  0  0  0  0  0  0  0  0  0
   -0.0826    0.6639   -0.1773 C   0  0  0  0  0  0  0  0  0  0  0  0
    1.2112    1.0730   -0.5369 C   0  0  0  0  0  0  0  0  0  0  0  0
    2.2729    0.1788   -0.4363 C   0  0  0  0  0  0  0  0  0  0  0  0
    4.0137    0.7288   -0.9334 Br  0  0  0  0  0  0  0  0  0  0  0  0
    2.0670   -1.1151    0.0327 C   0  0  0  0  0  0  0  0  0  0  0  0
    0.7834   -1.5159    0.4089 C   0  0  0  0  0  0  0  0  0  0  0  0
   -0.3162   -0.6392    0.3094 C   0  0  0  0  0  0  0  0  0  0  0  0
   -1.6848   -1.1323    0.7863 C   0  0  0  0  0  0  0  0  0  0  0  0
   -1.8739   -0.6386    1.9989 O   0  0  0  0  0  1  0  0  0  0  0  0
  1  2  2  0
  2  3  1  0
  2  4  1  0
  4  5  1  0
  5  6  2  0
  6  7  1  0
  6  8  1  0
  8  9  2  0
  9 10  1  0
 10 11  1  0
 11 12  1  0
 10  4  2  0
M  CHG  1  12   1
M  RAD  1  12   3
M  END
>  <Rank>  (7) 
7

>  <Score>  (7) 
0.8140

>  <Pharma_Score>  (7) 
1.0000

>  <QED>  (7) 
0.7900

>  <MW>  (7) 
230.04

>  <LogP>  (7) 
2.08

>  <PSA>  (7) 
57.2

>  <SA_Score>  (7) 
2.81

>  <HBD>  (7) 
1

>  <HBA>  (7) 
1

>  <Lip_Violations>  (7) 
0

>  <SMILES>  (7) 
O=C(O)c1cc(Br)ccc1C[O+]

$$$$
Candidata_008
     RDKit          3D

 17 18  0  0  0  0  0  0  0  0999 V2000
   -0.7298   -1.1429    2.3560 O   0  0  0  0  0  0  0  0  0  0  0  0
   -1.7192   -0.8114    1.7339 C   0  0  0  0  0  0  0  0  0  0  0  0
   -2.9527   -1.0424    2.2211 O   0  0  0  0  0  0  0  0  0  0  0  0
   -1.7715   -0.1538    0.4017 C   0  0  0  0  0  0  0  0  0  0  0  0
   -2.8238    0.7486    0.1588 C   0  0  0  0  0  0  0  0  0  0  0  0
   -2.9167    1.4094   -1.0630 C   0  0  0  0  0  0  0  0  0  0  0  0
   -4.3351    2.6202   -1.3712 Br  0  0  0  0  0  0  0  0  0  0  0  0
   -1.9719    1.1867   -2.0566 C   0  0  0  0  0  0  0  0  0  0  0  0
   -0.9256    0.2931   -1.8244 C   0  0  0  0  0  0  0  0  0  0  0  0
   -0.8023   -0.3913   -0.5960 C   0  0  0  0  0  0  0  0  0  0  0  0
    0.3567   -1.3604   -0.4453 C   0  0  0  0  0  0  0  0  0  0  0  0
    1.6959   -0.6857   -0.3523 C   0  0  0  0  0  0  0  0  0  0  0  0
    2.5481   -0.5188   -1.3222 C   0  0  0  0  0  0  0  0  0  0  0  0
    3.8305    0.1139   -1.1797 N   0  0  0  0  0  0  0  0  0  0  0  0
    4.3340    0.6072   -0.0722 C   0  0  0  0  0  0  0  0  0  0  0  0
    3.4094    0.4425    1.1011 C   0  0  0  0  0  0  0  0  0  0  0  0
    2.1999   -0.1593    0.9420 C   0  0  0  0  0  0  0  0  0  0  0  0
  1  2  2  0
  2  3  1  0
  2  4  1  0
  4  5  1  0
  5  6  2  0
  6  7  1  0
  6  8  1  0
  8  9  2  0
  9 10  1  0
 10 11  1  0
 11 12  1  0
 12 13  2  0
 13 14  2  0
 14 15  2  0
 15 16  1  0
 16 17  2  0
 10  4  2  0
 17 12  1  0
M  CHG  1  14   1
M  END
>  <Rank>  (8) 
8

>  <Score>  (8) 
0.7960

>  <Pharma_Score>  (8) 
1.0000

>  <QED>  (8) 
0.8660

>  <MW>  (8) 
291.12

>  <LogP>  (8) 
1.99

>  <PSA>  (8) 
51.4

>  <SA_Score>  (8) 
3.93

>  <HBD>  (8) 
1

>  <HBA>  (8) 
1

>  <Lip_Violations>  (8) 
0

>  <SMILES>  (8) 
O=C(O)c1cc(Br)ccc1CC1=C=[N+]=CC=C1

$$$$
Candidata_009
     RDKit          3D

 19 20  0  0  0  0  0  0  0  0999 V2000
   -0.6108    1.7948    1.5752 N   0  0  0  0  0  0  0  0  0  0  0  0
   -0.2709    0.5232    0.9295 C   0  0  0  0  0  0  0  0  0  0  0  0
    0.6415    0.6706   -0.3133 C   0  0  0  0  0  0  0  0  0  0  0  0
    2.3223    1.3875    0.0470 P   0  0  0  0  0  0  0  0  0  0  0  0
    3.1195   -0.0025    0.8768 C   0  0  0  0  0  0  0  0  0  0  0  0
    4.0691   -0.8323    0.2814 C   0  0  0  0  0  0  0  0  0  0  0  0
    4.5036   -0.6987   -1.0476 C   0  0  0  0  0  0  0  0  0  0  0  0
    4.0280    0.2847   -1.9307 C   0  0  0  0  0  0  0  0  0  0  0  0
    3.0736    1.2424   -1.5885 C   0  0  0  0  0  0  0  0  0  0  0  0
   -1.4893   -0.3432    0.6105 C   0  0  0  0  0  0  0  0  0  0  0  0
   -1.3375   -1.7321    0.8373 C   0  0  0  0  0  0  0  0  0  0  0  0
   -2.3786   -2.6345    0.6095 C   0  0  0  0  0  0  0  0  0  0  0  0
   -3.6013   -2.1672    0.1493 C   0  0  0  0  0  0  0  0  0  0  0  0
   -5.0188   -3.3797   -0.1514 Br  0  0  0  0  0  0  0  0  0  0  0  0
   -3.7855   -0.8104   -0.0945 C   0  0  0  0  0  0  0  0  0  0  0  0
   -2.7349    0.1039    0.1157 C   0  0  0  0  0  0  0  0  0  0  0  0
   -3.0863    1.5084   -0.1974 C   0  0  0  0  0  0  0  0  0  0  0  0
   -4.1690    2.0263    0.0033 O   0  0  0  0  0  0  0  0  0  0  0  0
   -2.1083    2.1695   -0.8340 O   0  0  0  0  0  0  0  0  0  0  0  0
  1  2  1  0
  2  3  1  0
  3  4  1  0
  4  5  2  0
  5  6  1  0
  6  7  2  0
  7  8  1  0
  8  9  2  0
  2 10  1  0
 10 11  1  0
 11 12  2  0
 12 13  1  0
 13 14  1  0
 13 15  2  0
 15 16  1  0
 16 17  1  0
 17 18  2  0
 17 19  1  0
  9  4  1  0
 16 10  2  0
M  CHG  1   4   1
M  END
>  <Rank>  (9) 
9

>  <Score>  (9) 
0.7950

>  <Pharma_Score>  (9) 
1.0000

>  <QED>  (9) 
0.8810

>  <MW>  (9) 
339.15

>  <LogP>  (9) 
4.12

>  <PSA>  (9) 
63.3

>  <SA_Score>  (9) 
4.08

>  <HBD>  (9) 
2

>  <HBA>  (9) 
2

>  <Lip_Violations>  (9) 
0

>  <SMILES>  (9) 
NC(C[p+]1ccccc1)c1ccc(Br)cc1C(=O)O

$$$$
Candidata_010
     RDKit          3D

 18 19  0  0  0  0  0  0  0  0999 V2000
    3.2285    1.9275    1.8080 C   0  0  0  0  0  0  0  0  0  0  0  0
    3.1171    0.9115    0.7301 C   0  0  0  0  0  0  0  0  0  0  0  0
    3.2926    1.0886   -0.5895 C   0  0  0  0  0  0  0  0  0  0  0  0
    3.1010   -0.0862   -1.4074 C   0  0  0  0  0  0  0  0  0  0  0  0
    2.7763   -1.2085   -0.7481 C   0  0  0  0  0  0  0  0  0  0  0  0
    2.7192   -0.8854    1.0975 P   0  0  0  0  0  0  0  0  0  0  0  0
    0.8984   -0.7350    1.2814 C   0  0  0  0  0  0  0  0  0  0  0  0
   -0.3924   -0.6433    1.4210 C   0  0  0  0  0  0  0  0  0  0  0  0
   -1.3099   -0.2843    0.3256 C   0  0  0  0  0  0  0  0  0  0  0  0
   -0.8723    0.6329   -0.6511 C   0  0  0  0  0  0  0  0  0  0  0  0
   -1.6914    1.0091   -1.7185 C   0  0  0  0  0  0  0  0  0  0  0  0
   -2.9688    0.4748   -1.8254 C   0  0  0  0  0  0  0  0  0  0  0  0
   -4.0813    0.9820   -3.2664 Br  0  0  0  0  0  0  0  0  0  0  0  0
   -3.4348   -0.4285   -0.8747 C   0  0  0  0  0  0  0  0  0  0  0  0
   -2.6136   -0.8121    0.2033 C   0  0  0  0  0  0  0  0  0  0  0  0
   -3.1697   -1.7769    1.1888 C   0  0  0  0  0  0  0  0  0  0  0  0
   -2.9342   -1.8418    2.3791 O   0  0  0  0  0  0  0  0  0  0  0  0
   -4.0156   -2.6484    0.6058 O   0  0  0  0  0  0  0  0  0  0  0  0
  1  2  1  0
  2  3  2  0
  3  4  1  0
  4  5  2  0
  5  6  1  0
  6  7  2  0
  7  8  2  0
  8  9  1  0
  9 10  1  0
 10 11  2  0
 11 12  1  0
 12 13  1  0
 12 14  2  0
 14 15  1  0
 15 16  1  0
 16 17  2  0
 16 18  1  0
  6  2  1  0
 15  9  2  0
M  CHG  1   6   1
M  END
>  <Rank>  (10) 
10

>  <Score>  (10) 
0.7600

>  <Pharma_Score>  (10) 
1.0000

>  <QED>  (10) 
0.8160

>  <MW>  (10) 
322.12

>  <LogP>  (10) 
4.47

>  <PSA>  (10) 
37.3

>  <SA_Score>  (10) 
4.40

>  <HBD>  (10) 
1

>  <HBA>  (10) 
1

>  <Lip_Violations>  (10) 
0

>  <SMILES>  (10) 
CC1=CC=C[P+]1=C=Cc1ccc(Br)cc1C(=O)O

$$$$
Candidata_011
     RDKit          3D

 18 19  0  0  0  0  0  0  0  0999 V2000
   -2.7539    2.4919    2.2603 O   0  0  0  0  0  0  0  0  0  0  0  0
   -2.5739    2.1191    1.1172 C   0  0  0  0  0  0  0  0  0  0  0  0
   -2.0434    2.9131    0.1775 O   0  0  0  0  0  0  0  0  0  0  0  0
   -3.0075    0.8345    0.5692 C   0  0  0  0  0  0  0  0  0  0  0  0
   -2.2671   -0.1038   -0.0531 C   0  0  0  0  0  0  0  0  0  0  0  0
   -0.8220   -0.1590   -0.2965 C   0  0  0  0  0  0  0  0  0  0  0  0
    0.1733    0.8320    0.2560 C   0  0  0  0  0  0  0  0  0  0  0  0
    1.6222    0.3868    0.2479 C   0  0  0  0  0  0  0  0  0  0  0  0
    2.1158   -0.4404    1.2677 C   0  0  0  0  0  0  0  0  0  0  0  0
    3.4454   -0.8638    1.2533 C   0  0  0  0  0  0  0  0  0  0  0  0
    4.2929   -0.4681    0.2199 C   0  0  0  0  0  0  0  0  0  0  0  0
    3.8120    0.3498   -0.8011 C   0  0  0  0  0  0  0  0  0  0  0  0
    2.4827    0.7748   -0.7894 C   0  0  0  0  0  0  0  0  0  0  0  0
   -0.5225   -1.2483   -1.0227 C   0  0  0  0  0  0  0  0  0  0  0  0
   -1.7133   -2.0748   -1.3819 C   0  0  0  0  0  0  0  0  0  0  0  0
   -2.8575   -1.3875   -0.6296 C   0  0  0  0  0  0  0  0  0  0  0  0
   -4.3137   -0.9859   -1.8706 Br  0  0  0  0  0  0  0  0  0  0  0  0
   -3.4593   -2.5229    0.8515 Br  0  0  0  0  0  0  0  0  0  0  0  0
  1  2  2  0
  2  3  1  0
  2  4  1  0
  4  5  2  3
  5  6  1  0
  6  7  1  0
  7  8  1  0
  8  9  2  0
  9 10  1  0
 10 11  2  0
 11 12  1  0
 12 13  2  0
  6 14  2  0
 14 15  1  0
 15 16  1  0
 16 17  1  0
 16 18  1  0
 16  5  1  0
 13  8  1  0
M  END
>  <Rank>  (11) 
11

>  <Score>  (11) 
0.7530

>  <Pharma_Score>  (11) 
1.0000

>  <QED>  (11) 
0.6420

>  <MW>  (11) 
372.06

>  <LogP>  (11) 
4.06

>  <PSA>  (11) 
37.3

>  <SA_Score>  (11) 
3.05

>  <HBD>  (11) 
1

>  <HBA>  (11) 
1

>  <Lip_Violations>  (11) 
0

>  <SMILES>  (11) 
O=C(O)C=C1C(Cc2ccccc2)=CCC1(Br)Br

$$$$
Candidata_012
     RDKit          3D

 16 18  0  0  0  0  0  0  0  0999 V2000
   -0.6854   -0.9542    2.8326 O   0  0  0  0  0  0  0  0  0  0  0  0
   -0.8464   -0.5160    1.6484 C   0  0  0  0  0  0  0  0  0  0  0  0
   -0.0993   -0.2014    0.5521 C   0  0  0  0  0  0  0  0  0  0  0  0
    1.3692   -0.1677    0.1205 C   0  0  0  0  0  0  0  0  0  0  0  0
    2.3611    0.0243    1.0833 C   0  0  0  0  0  0  0  0  0  0  0  0
    3.7027    0.0517    0.6991 C   0  0  0  0  0  0  0  0  0  0  0  0
    4.0490   -0.1147   -0.6418 C   0  0  0  0  0  0  0  0  0  0  0  0
    3.0547   -0.3070   -1.6010 C   0  0  0  0  0  0  0  0  0  0  0  0
    1.7116   -0.3331   -1.2214 C   0  0  0  0  0  0  0  0  0  0  0  0
   -1.3314    0.1779   -0.2106 C   0  0  0  0  0  0  0  0  0  0  0  0
   -1.8432    0.6482   -1.3761 C   0  0  0  0  0  0  0  0  0  0  0  0
   -3.2395    0.7845   -1.3880 C   0  0  0  0  0  0  0  0  0  0  0  0
   -4.0213    0.4503   -0.2452 C   0  0  0  0  0  0  0  0  0  0  0  0
   -5.9015    0.6593   -0.3279 Br  0  0  0  0  0  0  0  0  0  0  0  0
   -3.4387   -0.0235    0.9346 C   0  0  0  0  0  0  0  0  0  0  0  0
   -2.0873   -0.1318    0.8768 C   0  0  0  0  0  0  0  0  0  0  0  0
  1  2  1  0
  2  3  2  0
  3  4  1  0
  4  5  2  0
  5  6  1  0
  6  7  2  0
  7  8  1  0
  8  9  2  0
  3 10  1  0
 10 11  1  0
 11 12  2  0
 12 13  1  0
 13 14  1  0
 13 15  2  0
 15 16  1  0
 16  2  1  0
  9  4  1  0
 16 10  2  0
M  END
>  <Rank>  (12) 
12

>  <Score>  (12) 
0.7440

>  <Pharma_Score>  (12) 
0.7500

>  <QED>  (12) 
0.8240

>  <MW>  (12) 
273.13

>  <LogP>  (12) 
4.24

>  <PSA>  (12) 
20.2

>  <SA_Score>  (12) 
2.04

>  <HBD>  (12) 
1

>  <HBA>  (12) 
1

>  <Lip_Violations>  (12) 
0

>  <SMILES>  (12) 
OC1=C(c2ccccc2)c2ccc(Br)cc21

$$$$
Candidata_013
     RDKit          3D

 18 19  0  0  0  0  0  0  0  0999 V2000
   -3.9907   -1.0476   -0.8839 O   0  0  0  0  0  0  0  0  0  0  0  0
   -2.9088   -1.4360   -1.3182 C   0  0  0  0  0  0  0  0  0  0  0  0
   -1.5372   -0.9442   -0.8645 C   0  0  0  0  0  0  0  0  0  0  0  0
   -0.6556   -0.9797   -1.9852 O   0  0  0  0  0  0  0  0  0  0  0  0
   -1.5154    0.4454   -0.2458 C   0  0  0  0  0  0  0  0  0  0  0  0
   -2.2182    1.4883   -0.8873 C   0  0  0  0  0  0  0  0  0  0  0  0
   -2.2132    2.7838   -0.3732 C   0  0  0  0  0  0  0  0  0  0  0  0
   -3.1777    4.1497   -1.2548 Br  0  0  0  0  0  0  0  0  0  0  0  0
   -1.4995    3.0786    0.7798 C   0  0  0  0  0  0  0  0  0  0  0  0
   -0.7756    2.0706    1.4149 C   0  0  0  0  0  0  0  0  0  0  0  0
   -0.7599    0.7529    0.9124 C   0  0  0  0  0  0  0  0  0  0  0  0
    0.1038   -0.2672    1.6365 C   0  0  0  0  0  0  0  0  0  0  0  0
    1.3496   -0.6796    0.8813 C   0  0  0  0  0  0  0  0  0  0  0  0
    2.2432    0.2774    0.3761 C   0  0  0  0  0  0  0  0  0  0  0  0
    3.3927   -0.1155   -0.3115 C   0  0  0  0  0  0  0  0  0  0  0  0
    3.6695   -1.4684   -0.4924 C   0  0  0  0  0  0  0  0  0  0  0  0
    2.8011   -2.4296    0.0198 C   0  0  0  0  0  0  0  0  0  0  0  0
    1.6512   -2.0386    0.7080 C   0  0  0  0  0  0  0  0  0  0  0  0
  1  2  2  0
  2  3  1  0
  3  4  1  0
  3  5  1  0
  5  6  1  0
  6  7  2  0
  7  8  1  0
  7  9  1  0
  9 10  2  0
 10 11  1  0
 11 12  1  0
 12 13  1  0
 13 14  2  0
 14 15  1  0
 15 16  2  0
 16 17  1  0
 17 18  2  0
 11  5  2  0
 18 13  1  0
M  END
>  <Rank>  (13) 
13

>  <Score>  (13) 
0.7380

>  <Pharma_Score>  (13) 
0.7500

>  <QED>  (13) 
0.8800

>  <MW>  (13) 
305.17

>  <LogP>  (13) 
3.27

>  <PSA>  (13) 
37.3

>  <SA_Score>  (13) 
2.68

>  <HBD>  (13) 
1

>  <HBA>  (13) 
2

>  <Lip_Violations>  (13) 
0

>  <SMILES>  (13) 
O=CC(O)c1cc(Br)ccc1Cc1ccccc1

$$$$
Candidata_014
     RDKit          3D

 12 12  0  0  0  0  0  0  0  0999 V2000
    2.9837   -2.3313   -0.8381 C   0  0  0  0  0  1  0  0  0  0  0  0
    1.9444   -1.2499   -0.4827 C   0  0  0  0  0  0  0  0  0  0  0  0
    2.3640    0.0504   -0.2199 C   0  0  0  0  0  0  0  0  0  0  0  0
    1.4275    1.0370    0.1023 C   0  0  0  0  0  0  0  0  0  0  0  0
    0.0532    0.7352    0.1774 C   0  0  0  0  0  0  0  0  0  0  0  0
   -0.9012    1.8605    0.4714 C   0  0  0  0  0  0  0  0  0  0  0  0
   -1.7959    2.4010   -1.1680 Br  0  0  0  0  0  0  0  0  0  0  0  0
   -0.3511   -0.5942   -0.0795 C   0  0  0  0  0  0  0  0  0  0  0  0
   -1.7559   -1.0603   -0.0497 C   0  0  0  0  0  0  0  0  0  0  0  0
   -2.2397   -1.8901   -0.7952 O   0  0  0  0  0  0  0  0  0  0  0  0
   -2.4486   -0.5450    0.9761 O   0  0  0  0  0  0  0  0  0  0  0  0
    0.5957   -1.5748   -0.4199 C   0  0  0  0  0  0  0  0  0  0  0  0
  1  2  1  0
  2  3  1  0
  3  4  2  0
  4  5  1  0
  5  6  1  0
  6  7  1  0
  5  8  2  0
  8  9  1  0
  9 10  2  0
  9 11  1  0
  8 12  1  0
 12  2  2  0
M  CHG  1   1   1
M  RAD  1   1   3
M  END
>  <Rank>  (14) 
14

>  <Score>  (14) 
0.7300

>  <Pharma_Score>  (14) 
1.0000

>  <QED>  (14) 
0.6200

>  <MW>  (14) 
226.05

>  <LogP>  (14) 
2.22

>  <PSA>  (14) 
37.3

>  <SA_Score>  (14) 
3.43

>  <HBD>  (14) 
1

>  <HBA>  (14) 
1

>  <Lip_Violations>  (14) 
0

>  <SMILES>  (14) 
[C+]c1ccc(CBr)c(C(=O)O)c1

$$$$
Candidata_015
     RDKit          3D

 17 18  0  0  0  0  0  0  0  0999 V2000
    1.7636   -2.0006   -1.7054 O   0  0  0  0  0  0  0  0  0  0  0  0
    2.5914   -1.4064   -1.0385 C   0  0  0  0  0  0  0  0  0  0  0  0
    3.8415   -1.8753   -0.9015 O   0  0  0  0  0  0  0  0  0  0  0  0
    2.3494   -0.1483   -0.3090 C   0  0  0  0  0  0  0  0  0  0  0  0
    3.3759    0.5578    0.2538 C   0  0  0  0  0  0  0  0  0  0  0  0
    3.1145    1.8565    0.8873 C   0  0  0  0  0  0  0  0  0  0  0  0
    4.4098    2.9149    1.6299 Br  0  0  0  0  0  0  0  0  0  0  0  0
    1.8842    2.2615    0.8192 C   0  0  0  0  0  0  0  0  0  0  0  0
    0.9484    1.6914    0.3382 C   0  0  0  0  0  0  0  0  0  0  0  0
    0.8645    0.3556   -0.3014 C   0  0  0  0  0  0  0  0  0  0  0  0
   -0.0603   -0.5797    0.5013 C   0  0  0  0  0  0  0  0  0  0  0  0
   -1.5251   -0.2832    0.2695 C   0  0  0  0  0  0  0  0  0  0  0  0
   -2.1809   -0.8097   -0.8523 C   0  0  0  0  0  0  0  0  0  0  0  0
   -3.5283   -0.5272   -1.0801 C   0  0  0  0  0  0  0  0  0  0  0  0
   -4.2308    0.2852   -0.1920 C   0  0  0  0  0  0  0  0  0  0  0  0
   -3.5868    0.8161    0.9241 C   0  0  0  0  0  0  0  0  0  0  0  0
   -2.2394    0.5347    1.1547 C   0  0  0  0  0  0  0  0  0  0  0  0
  1  2  2  0
  2  3  1  0
  2  4  1  0
  4  5  2  0
  5  6  1  0
  6  7  1  0
  6  8  2  0
  8  9  2  0
  9 10  1  0
 10 11  1  0
 11 12  1  0
 12 13  2  0
 13 14  1  0
 14 15  2  0
 15 16  1  0
 16 17  2  0
 10  4  1  0
 17 12  1  0
M  CHG  1   9   1
M  END
>  <Rank>  (15) 
15

>  <Score>  (15) 
0.7260

>  <Pharma_Score>  (15) 
1.0000

>  <QED>  (15) 
0.6860

>  <MW>  (15) 
290.14

>  <LogP>  (15) 
3.11

>  <PSA>  (15) 
37.3

>  <SA_Score>  (15) 
4.10

>  <HBD>  (15) 
1

>  <HBA>  (15) 
1

>  <Lip_Violations>  (15) 
0

>  <SMILES>  (15) 
O=C(O)C1=CC(Br)=C=[C+]C1Cc1ccccc1

$$$$
Candidata_016
     RDKit          3D

  8  7  0  0  0  0  0  0  0  0999 V2000
    1.9179    0.1545    1.0131 C   0  0  0  0  0  0  0  0  0  0  0  0
    1.4976    0.2438   -0.4476 C   0  0  0  0  0  0  0  0  0  0  0  0
    1.9396    2.0382   -1.1054 Br  0  0  0  0  0  0  0  0  0  0  0  0
    0.0469    0.0160   -0.7639 C   0  0  0  0  0  0  0  0  0  0  0  0
   -0.9469   -0.1903    0.1171 C   0  0  0  0  0  0  0  0  0  0  0  0
   -2.3507   -0.4179   -0.2602 C   0  0  0  0  0  0  0  0  0  0  0  0
   -3.2546   -0.5912    0.5372 O   0  0  0  0  0  0  0  0  0  0  0  0
   -2.5643   -0.4271   -1.5838 O   0  0  0  0  0  0  0  0  0  0  0  0
  1  2  1  0
  2  3  1  0
  2  4  1  0
  4  5  2  3
  5  6  1  0
  6  7  2  0
  6  8  1  0
M  END
>  <Rank>  (16) 
16

>  <Score>  (16) 
0.6820

>  <Pharma_Score>  (16) 
1.0000

>  <QED>  (16) 
0.5130

>  <MW>  (16) 
179.01

>  <LogP>  (16) 
1.41

>  <PSA>  (16) 
37.3

>  <SA_Score>  (16) 
3.69

>  <HBD>  (16) 
1

>  <HBA>  (16) 
1

>  <Lip_Violations>  (16) 
0

>  <SMILES>  (16) 
CC(Br)C=CC(=O)O

$$$$
Candidata_017
     RDKit          3D

 24 26  0  0  0  0  0  0  0  0999 V2000
   -1.4762   -0.6884   -1.9048 N   0  0  0  0  0  0  0  0  0  0  0  0
   -1.0171   -1.0029   -0.5512 C   0  0  0  0  0  0  0  0  0  0  0  0
   -2.1294   -1.2848    0.4301 C   0  0  0  0  0  0  0  0  0  0  0  0
   -3.4308   -0.9540    0.4382 C   0  0  0  0  0  0  0  0  0  0  0  0
   -4.2949   -1.3829    1.4986 C   0  0  0  0  0  0  0  0  0  0  0  0
   -5.4638   -1.1471    1.6079 C   0  0  0  0  0  0  0  0  0  0  0  0
   -6.2350   -0.4543    0.8205 C   0  0  0  0  0  0  0  0  0  0  0  0
   -5.5272    0.1047   -0.3514 C   0  0  0  0  0  0  0  0  0  0  0  0
   -4.1963   -0.1295   -0.5347 C   0  0  0  0  0  0  0  0  0  0  0  0
   -0.0742    0.0900   -0.0380 C   0  0  0  0  0  0  0  0  0  0  0  0
   -0.4966    1.3735    0.0270 C   0  0  0  0  0  0  0  0  0  0  0  0
    0.2663    2.5306    0.4293 C   0  0  0  0  0  0  0  0  0  0  0  0
    1.5409    2.7240    0.0640 C   0  0  0  0  0  0  0  0  0  0  0  0
    2.3242    1.7283   -0.7464 C   0  0  0  0  0  0  0  0  0  0  0  0
    2.4727    0.4076   -0.0131 C   0  0  0  0  0  0  0  0  0  0  0  0
    3.7457   -0.0920    0.3542 C   0  0  0  0  0  0  0  0  0  0  0  0
    5.0042    0.5578   -0.0796 C   0  0  0  0  0  0  0  0  0  0  0  0
    5.2601    0.9834   -1.1885 O   0  0  0  0  0  0  0  0  0  0  0  0
    5.8870    0.6356    0.9320 O   0  0  0  0  0  0  0  0  0  0  0  0
    3.8671   -1.2646    1.1122 C   0  0  0  0  0  0  0  0  0  0  0  0
    2.7277   -1.9475    1.5066 C   0  0  0  0  0  0  0  0  0  0  0  0
    2.8876   -3.5211    2.5425 Br  0  0  0  0  0  0  0  0  0  0  0  0
    1.4657   -1.4902    1.1356 C   0  0  0  0  0  0  0  0  0  0  0  0
    1.3104   -0.3248    0.3607 C   0  0  0  0  0  0  0  0  0  0  0  0
  1  2  1  0
  2  3  1  0
  3  4  2  3
  4  5  1  0
  5  6  2  0
  6  7  2  0
  7  8  1  0
  8  9  2  0
  2 10  1  0
 10 11  2  0
 11 12  1  0
 12 13  2  0
 13 14  1  0
 14 15  1  0
 15 16  2  0
 16 17  1  0
 17 18  2  0
 17 19  1  0
 16 20  1  0
 20 21  2  0
 21 22  1  0
 21 23  1  0
 23 24  2  0
  9  4  1  0
 24 10  1  0
 24 15  1  0
M  CHG  1   5   1
M  END
>  <Rank>  (17) 
17

>  <Score>  (17) 
0.6700

>  <Pharma_Score>  (17) 
1.0000

>  <QED>  (17) 
0.6150

>  <MW>  (17) 
381.25

>  <LogP>  (17) 
3.98

>  <PSA>  (17) 
63.3

>  <SA_Score>  (17) 
4.89

>  <HBD>  (17) 
2

>  <HBA>  (17) 
2

>  <Lip_Violations>  (17) 
0

>  <SMILES>  (17) 
NC(C=C1[C+]=C=CC=C1)C1=CC=CCc2c(C(=O)O)cc(Br)cc21

$$$$
Candidata_018
     RDKit          3D

 18 20  0  0  0  0  0  0  0  0999 V2000
   -2.3826   -2.3885   -1.4659 O   0  0  0  0  0  0  0  0  0  0  0  0
   -1.6591   -1.9980   -0.4084 C   0  0  0  0  0  0  0  0  0  0  0  0
   -0.6872   -2.7460   -0.0093 N   0  0  0  0  0  3  0  0  0  0  0  0
   -0.0209   -2.2601    1.1557 O   0  0  0  0  0  0  0  0  0  0  0  0
    0.1885   -0.8263    1.2099 C   0  0  0  0  0  0  0  0  0  0  0  0
    1.3028   -0.3489    0.2807 C   0  0  0  0  0  0  0  0  0  0  0  0
    1.9929   -1.1539   -0.5519 C   0  0  0  0  0  0  0  0  0  0  0  0
    3.0327   -0.6620   -1.4221 C   0  0  0  0  0  0  0  0  0  0  0  0
    3.5334    0.5716   -1.2829 C   0  0  0  0  0  0  0  0  0  0  0  0
    3.0229    1.5158   -0.2375 C   0  0  0  0  0  0  0  0  0  0  0  0
    1.6530    1.1277    0.3511 C   0  0  0  0  0  0  0  0  0  0  0  0
   -1.1380   -0.1245    1.0177 C   0  0  0  0  0  0  0  0  0  0  0  0
   -1.4634    1.0867    1.6417 C   0  0  0  0  0  0  0  0  0  0  0  0
   -2.6960    1.6941    1.3873 C   0  0  0  0  0  0  0  0  0  0  0  0
   -3.6037    1.0928    0.5127 C   0  0  0  0  0  0  0  0  0  0  0  0
   -5.2664    1.9266    0.1741 Br  0  0  0  0  0  0  0  0  0  0  0  0
   -3.2994   -0.1162   -0.1069 C   0  0  0  0  0  0  0  0  0  0  0  0
   -2.0681   -0.7169    0.1596 C   0  0  0  0  0  0  0  0  0  0  0  0
  1  2  1  0
  2  3  2  0
  3  4  1  0
  4  5  1  0
  5  6  1  0
  6  7  2  0
  7  8  1  0
  8  9  2  0
  9 10  1  0
 10 11  1  0
  5 12  1  0
 12 13  1  0
 13 14  2  0
 14 15  1  0
 15 16  1  0
 15 17  2  0
 17 18  1  0
 18  2  1  0
 11  6  1  0
 18 12  2  0
M  CHG  1   3   1
M  RAD  1   3   2
M  END
>  <Rank>  (18) 
18

>  <Score>  (18) 
0.6670

>  <Pharma_Score>  (18) 
0.7500

>  <QED>  (18) 
0.8640

>  <MW>  (18) 
306.16

>  <LogP>  (18) 
3.35

>  <PSA>  (18) 
43.6

>  <SA_Score>  (18) 
4.33

>  <HBD>  (18) 
1

>  <HBA>  (18) 
2

>  <Lip_Violations>  (18) 
0

>  <SMILES>  (18) 
OC1=[N+]OC(C2=CC=CCC2)c2ccc(Br)cc21

$$$$
Candidata_019
     RDKit          3D

  9  9  0  0  0  0  0  0  0  0999 V2000
    2.5506   -1.0696   -0.2743 O   0  0  0  0  0  0  0  0  0  0  0  0
    2.0258    0.0252    0.2299 C   0  0  0  0  0  0  0  0  0  0  0  0
    2.5704    1.0134   -0.6241 O   0  0  0  0  0  0  0  0  0  0  0  0
    0.5056   -0.0195    0.1168 C   0  0  0  0  0  0  0  0  0  0  0  0
   -0.2053    0.7613   -0.8086 C   0  0  0  0  0  0  0  0  0  0  0  0
   -1.6016    0.7224   -0.8636 C   0  0  0  0  0  0  0  0  0  0  0  0
   -2.3129   -0.0986    0.0097 C   0  0  0  0  0  0  0  0  0  0  0  0
   -1.6283   -0.8818    0.9367 C   0  0  0  0  0  0  0  0  0  0  0  0
   -0.2328   -0.8398    0.9897 C   0  0  0  0  0  0  0  0  0  0  0  0
  1  2  1  0
  2  3  1  0
  2  4  1  0
  4  5  2  0
  5  6  1  0
  6  7  2  0
  7  8  1  0
  8  9  2  0
  9  4  1  0
M  CHG  1   1  -1
M  END
>  <Rank>  (19) 
19

>  <Score>  (19) 
0.6140

>  <Pharma_Score>  (19) 
0.7500

>  <QED>  (19) 
0.5360

>  <MW>  (19) 
123.13

>  <LogP>  (19) 
0.04

>  <PSA>  (19) 
43.3

>  <SA_Score>  (19) 
2.79

>  <HBD>  (19) 
1

>  <HBA>  (19) 
2

>  <Lip_Violations>  (19) 
0

>  <SMILES>  (19) 
[O-]C(O)c1ccccc1

$$$$
Candidata_020
     RDKit          3D

 16 15  0  0  0  0  0  0  0  0999 V2000
    3.0779    2.8576   -0.1731 O   0  0  0  0  0  0  0  0  0  0  0  0
    2.2526    2.2744    0.5021 C   0  0  0  0  0  0  0  0  0  0  0  0
    1.4655    2.9051    1.3860 O   0  0  0  0  0  0  0  0  0  0  0  0
    1.9529    0.8377    0.4978 C   0  0  0  0  0  0  0  0  0  0  0  0
    2.6571    0.0136   -0.2947 C   0  0  0  0  0  0  0  0  0  0  0  0
    2.4606   -1.4121   -0.4108 C   0  0  0  0  0  0  0  0  0  0  0  0
    3.6064   -2.4142   -1.4734 Br  0  0  0  0  0  0  0  0  0  0  0  0
    1.4703   -2.0749    0.1099 C   0  0  0  0  0  0  0  0  0  0  0  0
    0.4701   -2.7332    0.6254 C   0  0  0  0  0  0  0  0  0  0  0  0
   -0.8772   -2.1964    0.7583 C   0  0  0  0  0  0  0  0  0  0  0  0
   -1.9158   -3.0626    2.0705 Br  0  0  0  0  0  0  0  0  0  0  0  0
   -1.3366   -1.1818   -0.0035 C   0  0  0  0  0  0  0  0  0  0  0  0
   -2.6404   -0.5510    0.0614 C   0  0  0  0  0  0  0  0  0  0  0  0
   -3.0588    0.4756   -0.6985 C   0  0  0  0  0  0  0  0  0  0  0  0
   -2.3368    1.1706   -1.8052 C   0  0  0  0  0  0  0  0  0  0  0  0
   -1.6565    2.8558   -1.1182 Br  0  0  0  0  0  0  0  0  0  0  0  0
  1  2  2  0
  2  3  1  0
  2  4  1  0
  4  5  2  3
  5  6  1  0
  6  7  1  0
  6  8  2  0
  8  9  2  0
  9 10  1  0
 10 11  1  0
 10 12  2  3
 12 13  1  0
 13 14  2  3
 14 15  1  0
 15 16  1  0
M  END
>  <Rank>  (20) 
20

>  <Score>  (20) 
0.5870

>  <Pharma_Score>  (20) 
1.0000

>  <QED>  (20) 
0.3160

>  <MW>  (20) 
412.90

>  <LogP>  (20) 
4.29

>  <PSA>  (20) 
37.3

>  <SA_Score>  (20) 
4.34

>  <HBD>  (20) 
1

>  <HBA>  (20) 
1

>  <Lip_Violations>  (20) 
0

>  <SMILES>  (20) 
O=C(O)C=CC(Br)=C=CC(Br)=CC=CCBr

$$$$
Candidata_021
     RDKit          3D

 15 15  0  0  0  0  0  0  0  0999 V2000
   -5.0083   -1.1715   -1.7552 C   0  0  0  0  0  0  0  0  0  0  0  0
   -3.5771   -0.7702   -1.4952 C   0  0  0  0  0  0  0  0  0  0  0  0
   -2.8368   -0.4872   -2.4402 O   0  0  0  0  0  0  0  0  0  0  0  0
   -3.0785   -0.7183   -0.0715 C   0  0  0  0  0  0  0  0  0  0  0  0
   -4.0875   -1.5481    1.2686 Br  0  0  0  0  0  0  0  0  0  0  0  0
   -1.9189   -0.0634    0.1379 C   0  0  0  0  0  0  0  0  0  0  0  0
   -1.2349    0.1158    1.4040 C   0  0  0  0  0  0  0  0  0  0  0  0
   -0.0853    0.7834    1.5992 C   0  0  0  0  0  0  0  0  0  0  0  0
    0.7600    1.5254    0.6000 C   0  0  0  0  0  0  0  0  0  0  0  0
    2.0906    0.8503    0.3685 C   0  0  0  0  0  0  0  0  0  0  0  0
    2.1992   -0.2036   -0.5504 C   0  0  0  0  0  0  0  0  0  0  0  0
    3.4242   -0.8400   -0.7563 C   0  0  0  0  0  0  0  0  0  0  0  0
    4.5504   -0.4338   -0.0432 C   0  0  0  0  0  0  0  0  0  0  0  0
    4.4527    0.6073    0.8782 C   0  0  0  0  0  0  0  0  0  0  0  0
    3.2286    1.2454    1.0860 C   0  0  0  0  0  0  0  0  0  0  0  0
  1  2  1  0
  2  3  2  0
  2  4  1  0
  4  5  1  0
  4  6  2  3
  6  7  1  0
  7  8  2  3
  8  9  1  0
  9 10  1  0
 10 11  2  0
 11 12  1  0
 12 13  2  0
 13 14  1  0
 14 15  2  0
 15 10  1  0
M  END
>  <Rank>  (21) 
21

>  <Score>  (21) 
0.5260

>  <Pharma_Score>  (21) 
0.5000

>  <QED>  (21) 
0.6000

>  <MW>  (21) 
265.15

>  <LogP>  (21) 
3.65

>  <PSA>  (21) 
17.1

>  <SA_Score>  (21) 
2.73

>  <HBD>  (21) 
0

>  <HBA>  (21) 
1

>  <Lip_Violations>  (21) 
0

>  <SMILES>  (21) 
CC(=O)C(Br)=CC=CCc1ccccc1

$$$$
Candidata_022
     RDKit          3D

 13 13  0  0  0  0  0  0  0  0999 V2000
    5.4137   -1.1341   -0.7739 O   0  0  0  0  0  0  0  0  0  0  0  0
    3.9442   -0.3675   -0.3547 B   0  0  0  0  0  0  0  0  0  0  0  0
    2.4152    0.3710   -0.3604 C   0  0  0  0  0  0  0  0  0  0  0  0
    1.3415   -0.5087   -0.0629 O   0  0  0  0  0  0  0  0  0  0  0  0
    0.0677    0.0494   -0.0501 C   0  0  0  0  0  0  0  0  0  0  0  0
   -0.1916    1.3677   -0.3028 C   0  0  0  0  0  0  0  0  0  0  0  0
   -1.4673    1.9057   -0.2852 C   0  0  0  0  0  0  0  0  0  0  0  0
   -1.7794    3.7584   -0.6417 Br  0  0  0  0  0  0  0  0  0  0  0  0
   -2.5130    1.0557    0.0023 C   0  0  0  0  0  0  0  0  0  0  0  0
   -2.3035   -0.2965    0.2673 C   0  0  0  0  0  0  0  0  0  0  0  0
   -1.0005   -0.7876    0.2371 C   0  0  0  0  0  0  0  0  0  0  0  0
   -0.7364   -2.2265    0.5128 C   0  0  0  0  0  0  0  0  0  0  0  0
   -0.0109   -2.3411    2.3219 Br  0  0  0  0  0  0  0  0  0  0  0  0
  1  2  2  0
  2  3  1  0
  3  4  1  0
  4  5  1  0
  5  6  1  0
  6  7  2  0
  7  8  1  0
  7  9  1  0
  9 10  2  0
 10 11  1  0
 11 12  1  0
 12 13  1  0
 11  5  2  0
M  END
>  <Rank>  (22) 
22

>  <Score>  (22) 
0.5160

>  <Pharma_Score>  (22) 
0.5000

>  <QED>  (22) 
0.6310

>  <MW>  (22) 
305.76

>  <LogP>  (22) 
2.73

>  <PSA>  (22) 
26.3

>  <SA_Score>  (22) 
3.25

>  <HBD>  (22) 
0

>  <HBA>  (22) 
2

>  <Lip_Violations>  (22) 
0

>  <SMILES>  (22) 
O=BCOc1cc(Br)ccc1CBr

$$$$
Candidata_023
     RDKit          3D

 16 17  0  0  0  0  0  0  0  0999 V2000
    3.2333   -2.5623   -0.0969 O   0  0  0  0  0  0  0  0  0  0  0  0
    2.8302   -1.3982   -0.1133 C   0  0  0  0  0  0  0  0  0  0  0  0
    3.6689   -0.3814    0.5852 C   0  0  0  0  0  0  0  0  0  0  0  0
    3.5635    0.9515    0.7473 C   0  0  0  0  0  0  0  0  0  0  0  0
    2.5019    1.7663    0.2282 C   0  0  0  0  0  0  0  0  0  0  0  0
    2.3913    3.5792    0.4837 Br  0  0  0  0  0  0  0  0  0  0  0  0
    1.5714    1.1648   -0.4270 C   0  0  0  0  0  0  0  0  0  0  0  0
    0.9742    0.1409   -0.9336 C   0  0  0  0  0  0  0  0  0  0  0  0
   -0.3434    0.0869   -1.6342 C   0  0  0  0  0  0  0  0  0  0  0  0
   -1.5020   -0.0911   -0.6813 C   0  0  0  0  0  0  0  0  0  0  0  0
   -1.8836   -1.3727   -0.2586 C   0  0  0  0  0  0  0  0  0  0  0  0
   -2.9404   -1.5363    0.6382 C   0  0  0  0  0  0  0  0  0  0  0  0
   -3.6216   -0.4223    1.1252 C   0  0  0  0  0  0  0  0  0  0  0  0
   -3.2451    0.8566    0.7190 C   0  0  0  0  0  0  0  0  0  0  0  0
   -2.1885    1.0231   -0.1776 C   0  0  0  0  0  0  0  0  0  0  0  0
    1.6590   -1.0966   -0.7565 O   0  0  0  0  0  0  0  0  0  0  0  0
  1  2  2  0
  2  3  1  0
  3  4  2  0
  4  5  1  0
  5  6  1  0
  5  7  2  0
  7  8  2  0
  8  9  1  0
  9 10  1  0
 10 11  2  0
 11 12  1  0
 12 13  2  0
 13 14  1  0
 14 15  2  0
  8 16  1  0
 16  2  1  0
 15 10  1  0
M  END
>  <Rank>  (23) 
23

>  <Score>  (23) 
0.5050

>  <Pharma_Score>  (23) 
0.5000

>  <QED>  (23) 
0.6130

>  <MW>  (23) 
277.12

>  <LogP>  (23) 
3.10

>  <PSA>  (23) 
26.3

>  <SA_Score>  (23) 
3.37

>  <HBD>  (23) 
0

>  <HBA>  (23) 
2

>  <Lip_Violations>  (23) 
0

>  <SMILES>  (23) 
O=C1C=CC(Br)=C=C(Cc2ccccc2)O1

$$$$
Candidata_024
     RDKit          3D

 18 19  0  0  0  0  0  0  0  0999 V2000
   -3.9195    2.0350   -0.0482 O   0  0  0  0  0  0  0  0  0  0  0  0
   -2.9014    2.2666   -0.7703 C   0  0  0  0  0  0  0  0  0  0  0  0
   -2.7645    3.2343   -1.5779 O   0  0  0  0  0  1  0  0  0  0  0  0
   -1.8357    1.4522   -0.6862 O   0  0  0  0  0  0  0  0  0  0  0  0
   -1.8999    0.2171   -0.1175 C   0  0  0  0  0  0  0  0  0  0  0  0
   -2.9078   -0.6906   -0.4578 C   0  0  0  0  0  0  0  0  0  0  0  0
   -2.9007   -1.9716    0.0872 C   0  0  0  0  0  0  0  0  0  0  0  0
   -4.2679   -3.1983   -0.3667 Br  0  0  0  0  0  0  0  0  0  0  0  0
   -1.8871   -2.3656    0.9579 C   0  0  0  0  0  0  0  0  0  0  0  0
   -0.8704   -1.4675    1.2857 C   0  0  0  0  0  0  0  0  0  0  0  0
   -0.8629   -0.1676    0.7507 C   0  0  0  0  0  0  0  0  0  0  0  0
    0.2570    0.7841    1.1103 C   0  0  0  0  0  0  0  0  0  0  0  0
    1.5372    0.5355    0.3427 C   0  0  0  0  0  0  0  0  0  0  0  0
    1.6612    0.9806   -0.9811 C   0  0  0  0  0  0  0  0  0  0  0  0
    2.8341    0.7486   -1.7004 C   0  0  0  0  0  0  0  0  0  0  0  0
    3.8947    0.0680   -1.1053 C   0  0  0  0  0  0  0  0  0  0  0  0
    3.7824   -0.3823    0.2093 C   0  0  0  0  0  0  0  0  0  0  0  0
    2.6090   -0.1513    0.9303 C   0  0  0  0  0  0  0  0  0  0  0  0
  1  2  2  0
  2  3  1  0
  2  4  1  0
  4  5  1  0
  5  6  1  0
  6  7  2  0
  7  8  1  0
  7  9  1  0
  9 10  2  0
 10 11  1  0
 11 12  1  0
 12 13  1  0
 13 14  2  0
 14 15  1  0
 15 16  2  0
 16 17  1  0
 17 18  2  0
 11  5  2  0
 18 13  1  0
M  CHG  1   3   1
M  RAD  1   3   3
M  END
>  <Rank>  (24) 
24

>  <Score>  (24) 
0.5000

>  <Pharma_Score>  (24) 
0.5000

>  <QED>  (24) 
0.4890

>  <MW>  (24) 
306.13

>  <LogP>  (24) 
3.97

>  <PSA>  (24) 
46.2

>  <SA_Score>  (24) 
2.41

>  <HBD>  (24) 
0

>  <HBA>  (24) 
2

>  <Lip_Violations>  (24) 
0

>  <SMILES>  (24) 
O=C([O+])Oc1cc(Br)ccc1Cc1ccccc1

$$$$
Candidata_025
     RDKit          3D

  6  5  0  0  0  0  0  0  0  0999 V2000
    1.9942   -0.1578    0.0237 C   0  0  0  0  0  0  0  0  0  0  0  0
    0.5507   -0.5848   -0.0889 C   0  0  0  0  0  0  0  0  0  0  0  0
    0.2646   -1.7403   -0.4078 O   0  0  0  0  0  0  0  0  0  0  0  0
   -0.5053    0.4680    0.2000 C   0  0  0  0  0  0  0  0  0  0  0  0
   -1.8742    0.0983   -0.3392 C   0  0  0  0  0  0  0  0  0  0  0  0
   -0.6070    0.6564    2.1383 Br  0  0  0  0  0  0  0  0  0  0  0  0
  1  2  1  0
  2  3  2  0
  2  4  1  0
  4  5  1  0
  4  6  1  0
M  END
>  <Rank>  (25) 
25

>  <Score>  (25) 
0.4910

>  <Pharma_Score>  (25) 
0.5000

>  <QED>  (25) 
0.5170

>  <MW>  (25) 
151.00

>  <LogP>  (25) 
1.36

>  <PSA>  (25) 
17.1

>  <SA_Score>  (25) 
2.87

>  <HBD>  (25) 
0

>  <HBA>  (25) 
1

>  <Lip_Violations>  (25) 
0

>  <SMILES>  (25) 
CC(=O)C(C)Br

$$$$
Candidata_026
     RDKit          3D

 15 16  0  0  0  0  0  0  0  0999 V2000
    6.2116    0.8081    0.9141 O   0  0  0  0  0  0  0  0  0  0  0  0
    5.3245    0.4381    0.1995 C   0  0  0  0  0  0  0  0  0  0  0  0
    4.7716    0.5170   -0.9767 O   0  0  0  0  0  0  0  0  0  0  0  0
    4.1354   -0.3114    0.1388 C   0  0  0  0  0  0  0  0  0  0  0  0
    4.3109   -2.2029   -0.0643 Br  0  0  0  0  0  0  0  0  0  0  0  0
    2.8288    0.2330    0.6307 C   0  0  0  0  0  0  0  0  0  0  0  0
    1.6761    0.0781   -0.3269 C   0  0  0  0  0  0  0  0  0  0  0  0
    0.5673   -0.6312   -0.0596 C   0  0  0  0  0  0  0  0  0  0  0  0
   -0.5878   -0.7839   -1.0109 C   0  0  0  0  0  0  0  0  0  0  0  0
   -1.8783   -0.2601   -0.4280 C   0  0  0  0  0  0  0  0  0  0  0  0
   -2.7885   -1.1298    0.1893 C   0  0  0  0  0  0  0  0  0  0  0  0
   -3.9735   -0.6391    0.7405 C   0  0  0  0  0  0  0  0  0  0  0  0
   -4.2576    0.7241    0.6854 C   0  0  0  0  0  0  0  0  0  0  0  0
   -3.3567    1.5990    0.0813 C   0  0  0  0  0  0  0  0  0  0  0  0
   -2.1714    1.1106   -0.4707 C   0  0  0  0  0  0  0  0  0  0  0  0
  1  2  2  0
  2  3  1  0
  3  4  1  0
  4  5  1  0
  4  6  1  0
  6  7  1  0
  7  8  2  3
  8  9  1  0
  9 10  1  0
 10 11  2  0
 11 12  1  0
 12 13  2  0
 13 14  1  0
 14 15  2  0
  4  2  1  0
 15 10  1  0
M  END
>  <Rank>  (26) 
26

>  <Score>  (26) 
0.4620

>  <Pharma_Score>  (26) 
0.5000

>  <QED>  (26) 
0.4770

>  <MW>  (26) 
267.12

>  <LogP>  (26) 
2.82

>  <PSA>  (26) 
29.6

>  <SA_Score>  (26) 
3.25

>  <HBD>  (26) 
0

>  <HBA>  (26) 
2

>  <Lip_Violations>  (26) 
0

>  <SMILES>  (26) 
O=C1OC1(Br)CC=CCc1ccccc1

$$$$
Candidata_027
     RDKit          3D

  2  1  0  0  0  0  0  0  0  0999 V2000
   -0.3739    0.4400    0.0000 O   0  0  0  0  0  0  0  0  0  0  0  0
    1.3504   -0.1172    0.0000 Br  0  0  0  0  0  0  0  0  0  0  0  0
  1  2  1  0
M  END
>  <Rank>  (27) 
27

>  <Score>  (27) 
0.4370

>  <Pharma_Score>  (27) 
0.5000

>  <QED>  (27) 
0.4600

>  <MW>  (27) 
96.91

>  <LogP>  (27) 
0.29

>  <PSA>  (27) 
20.2

>  <SA_Score>  (27) 
3.72

>  <HBD>  (27) 
1

>  <HBA>  (27) 
1

>  <Lip_Violations>  (27) 
0

>  <SMILES>  (27) 
OBr

$$$$
Candidata_028
     RDKit          3D

  7  6  0  0  0  0  0  0  0  0999 V2000
    2.9345   -0.0867    0.5349 C   0  0  0  0  0  0  0  0  0  0  0  0
    1.9757   -0.0942   -0.3984 C   0  0  0  0  0  0  0  0  0  0  0  0
    0.5678   -0.0245   -0.0805 C   0  0  0  0  0  0  0  0  0  0  0  0
   -0.3827   -0.0329   -1.0255 C   0  0  0  0  0  0  0  0  0  0  0  0
   -1.8436    0.0368   -0.7510 C   0  0  0  0  0  0  0  0  0  0  0  0
   -2.3376    0.1239    0.6688 C   0  0  0  0  0  0  0  0  0  0  0  0
   -2.6219    0.0213   -1.7041 O   0  0  0  0  0  0  0  0  0  0  0  0
  1  2  2  0
  2  3  1  0
  3  4  2  3
  4  5  1  0
  5  6  1  0
  5  7  2  0
M  END
>  <Rank>  (28) 
28

>  <Score>  (28) 
0.4340

>  <Pharma_Score>  (28) 
0.5000

>  <QED>  (28) 
0.3740

>  <MW>  (28) 
96.13

>  <LogP>  (28) 
1.32

>  <PSA>  (28) 
17.1

>  <SA_Score>  (28) 
3.05

>  <HBD>  (28) 
0

>  <HBA>  (28) 
1

>  <Lip_Violations>  (28) 
0

>  <SMILES>  (28) 
C=CC=CC(C)=O

$$$$
Candidata_029
     RDKit          3D

  2  1  0  0  0  0  0  0  0  0999 V2000
   -0.0119    0.0016    0.0029 C   0  0  0  0  0  0  0  0  0  0  0  0
    1.1666   -0.1582   -0.2895 O   0  0  0  0  0  0  0  0  0  0  0  0
  1  2  2  0
M  END
>  <Rank>  (29) 
29

>  <Score>  (29) 
0.2770

>  <Pharma_Score>  (29) 
0.2500

>  <QED>  (29) 
0.3610

>  <MW>  (29) 
30.03

>  <LogP>  (29) 
-0.18

>  <PSA>  (29) 
17.1

>  <SA_Score>  (29) 
4.04

>  <HBD>  (29) 
0

>  <HBA>  (29) 
1

>  <Lip_Violations>  (29) 
0

>  <SMILES>  (29) 
C=O

$$$$
