4n7e
  PyMOL3.2          3D                             0

 23 24  0  0  0  0  0  0  0  0999 V2000
  -33.9810   39.4970   16.0620 O   0  0  0  0  0  0  0  0  0  0  0  0
  -33.1670   38.7700   15.5400 C   0  0  0  0  0  0  0  0  0  0  0  0
  -33.1430   37.3690   15.7220 N   0  0  0  0  0  0  0  0  0  0  0  0
  -34.0670   36.6280   16.4980 C   0  0  0  0  0  0  0  0  0  0  0  0
  -35.2570   37.1840   16.9510 C   0  0  0  0  0  0  0  0  0  0  0  0
  -36.1560   36.4390   17.6930 C   0  0  0  0  0  0  0  0  0  0  0  0
  -35.8030   35.1230   17.9610 C   0  0  0  0  0  0  0  0  0  0  0  0
  -34.5990   34.5950   17.5000 C   0  0  0  0  0  0  0  0  0  0  0  0
  -34.2420   33.1610   17.8140 C   0  0  0  0  0  0  0  0  0  0  0  0
  -33.7610   35.3490   16.7820 N   0  0  0  0  0  0  0  0  0  0  0  0
  -32.0850   39.3730   14.6920 C   0  0  0  0  0  0  0  0  0  0  0  0
  -30.7920   39.2570   15.1360 C   0  0  0  0  0  0  0  0  0  0  0  0
  -29.7770   39.7990   14.3930 C   0  0  0  0  0  0  0  0  0  0  0  0
  -30.0440   40.4660   13.2230 C   0  0  0  0  0  0  0  0  0  0  0  0
  -31.3400   40.5770   12.7670 C   0  0  0  0  0  0  0  0  0  0  0  0
  -32.3700   40.0340   13.5160 C   0  0  0  0  0  0  0  0  0  0  0  0
  -33.8020   40.1420   13.0420 C   0  0  0  0  0  0  0  0  0  0  0  0
  -34.1990   41.2060   12.4930 O   0  0  0  0  0  0  0  0  0  0  0  0
  -34.5830   39.1580   13.1800 O   0  3  0  0  0  0  0  0  0  0  0  0
  -28.8810   41.0290   12.4330 C   0  0  0  0  0  0  0  0  0  0  0  0
  -27.8450   41.3290   13.2350 F   0  0  0  0  0  0  0  0  0  0  0  0
  -29.2390   42.0980   11.7010 F   0  0  0  0  0  0  0  0  0  0  0  0
  -28.4960   40.0420   11.6240 F   0  0  0  0  0  0  0  0  0  0  0  0
  1  2  2  0  0  0  0
  2  3  1  0  0  0  0
  3  4  1  0  0  0  0
  4  5  1  0  0  0  0
  5  6  2  0  0  0  0
  6  7  1  0  0  0  0
  7  8  2  0  0  0  0
  8  9  1  0  0  0  0
  4 10  2  0  0  0  0
  8 10  1  0  0  0  0
  2 11  1  0  0  0  0
 11 12  1  0  0  0  0
 12 13  2  0  0  0  0
 13 14  1  0  0  0  0
 14 15  2  0  0  0  0
 11 16  2  0  0  0  0
 15 16  1  0  0  0  0
 16 17  1  0  0  0  0
 17 18  2  0  0  0  0
 17 19  1  0  0  0  0
 14 20  1  0  0  0  0
 20 21  1  0  0  0  0
 20 22  1  0  0  0  0
 20 23  1  0  0  0  0
M  END
$$$$
5mrh
  PyMOL3.2          3D                             0

 11 11  0  0  0  0  0  0  0  0999 V2000
  -28.6096   39.6542   11.4241 C   0  0  0  0  0  0  0  0  0  0  0  0
  -28.7962   40.8382   12.4521 C   0  0  0  0  0  0  0  0  0  0  0  0
  -29.5466   41.9644   11.8208 C   0  0  0  0  0  0  0  0  0  0  0  0
  -29.4943   40.3163   13.7297 C   0  0  0  0  0  0  0  0  0  0  0  0
  -30.4964   41.3322   14.3328 C   0  0  0  0  0  0  0  0  0  0  0  0
  -31.8094   40.7854   14.1840 N   0  0  0  0  0  0  0  0  0  0  0  0
  -32.6450   39.7177   14.5698 C   0  0  0  0  0  0  0  0  0  0  0  0
  -33.7433   39.7478   13.5669 C   0  0  0  0  0  0  0  0  0  0  0  0
  -34.5137   38.8516   13.3420 O   0  0  0  0  0  0  0  0  0  0  0  0
  -33.7158   40.9932   12.9348 N   0  0  0  0  0  0  0  0  0  0  0  0
  -32.5342   41.6497   13.3029 N   0  0  0  0  0  0  0  0  0  0  0  0
  1  2  1  0  0  0  0
  2  3  1  0  0  0  0
  2  4  1  0  0  0  0
  4  5  1  0  0  0  0
  5  6  1  0  0  0  0
  6  7  1  0  0  0  0
  7  8  1  0  0  0  0
  8  9  2  0  0  0  0
  8 10  1  0  0  0  0
  6 11  1  0  0  0  0
 10 11  2  0  0  0  0
M  END
$$$$
6x3l
  PyMOL3.2          3D                             0

 19 20  0  0  0  0  0  0  0  0999 V2000
  -32.1803   39.2365   14.5321 N   0  0  0  0  0  0  0  0  0  0  0  0
  -33.4372   39.3447   16.6411 C   0  0  0  0  0  0  0  0  0  0  0  0
  -34.4856   41.3280   12.8283 O   0  5  0  0  0  0  0  0  0  0  0  0
  -32.5789   39.9604   17.5429 C   0  0  0  0  0  0  0  0  0  0  0  0
  -30.8154   39.2735   14.5829 N   0  0  0  0  0  0  0  0  0  0  0  0
  -34.8484   39.2088   13.4025 O   0  0  0  0  0  0  0  0  0  0  0  0
  -33.0583   40.8691   18.4704 C   0  0  0  0  0  0  0  0  0  0  0  0
  -34.4061   41.1637   18.5191 C   0  0  0  0  0  0  0  0  0  0  0  0
  -35.2765   40.5387   17.6422 C   0  0  0  0  0  0  0  0  0  0  0  0
  -34.7941   39.6341   16.7097 C   0  0  0  0  0  0  0  0  0  0  0  0
  -32.8930   38.4622   15.5492 C   0  0  0  0  0  0  0  0  0  0  0  0
  -30.4669   40.1326   13.6320 C   0  0  0  0  0  0  0  0  0  0  0  0
  -31.5875   40.6503   12.9678 C   0  0  0  0  0  0  0  0  0  0  0  0
  -32.6697   40.0502   13.5582 C   0  0  0  0  0  0  0  0  0  0  0  0
  -34.1137   40.2079   13.2375 C   0  0  0  0  0  0  0  0  0  0  0  0
  -29.0039   40.4210   13.3435 C   0  0  0  0  0  0  0  0  0  0  0  0
  -28.5028   39.4724   12.2596 C   0  0  0  0  0  0  0  0  0  0  0  0
  -28.8387   41.8554   12.8463 C   0  0  0  0  0  0  0  0  0  0  0  0
  -28.1629   40.2239   14.6075 C   0  0  0  0  0  0  0  0  0  0  0  0
  2  4  1  0  0  0  0
  1  5  1  0  0  0  0
  4  7  2  0  0  0  0
  7  8  1  0  0  0  0
  8  9  2  0  0  0  0
  2 10  2  0  0  0  0
  9 10  1  0  0  0  0
  1 11  1  0  0  0  0
  2 11  1  0  0  0  0
  5 12  2  0  0  0  0
 12 13  1  0  0  0  0
  1 14  1  0  0  0  0
 13 14  2  0  0  0  0
  3 15  2  0  0  0  0
  6 15  1  0  0  0  0
 14 15  1  0  0  0  0
 12 16  1  0  0  0  0
 16 17  1  0  0  0  0
 16 18  1  0  0  0  0
 16 19  1  0  0  0  0
M  END
$$$$
4msl
  PyMOL3.2          3D                             0

 23 24  0  0  0  0  0  0  0  0999 V2000
  -34.4596   39.1158   13.3719 O   0  0  0  0  0  0  0  0  0  0  0  0
  -33.7151   40.1216   13.5290 C   0  0  0  0  0  0  0  0  0  0  0  0
  -34.0950   41.2557   13.1286 O   0  5  0  0  0  0  0  0  0  0  0  0
  -32.4052   39.9731   14.1748 C   0  0  0  0  0  0  0  0  0  0  0  0
  -31.3176   40.3398   13.1845 C   0  0  0  0  0  0  0  0  0  0  0  0
  -29.9562   40.7816   13.7564 C   0  0  0  0  0  0  0  0  0  0  0  0
  -28.7849   40.4773   12.8753 C   0  0  0  0  0  0  0  0  0  0  0  0
  -29.7541   40.3842   15.1595 C   0  0  0  0  0  0  0  0  0  0  0  0
  -32.2392   38.6062   14.5993 N   0  0  0  0  0  0  0  0  0  0  0  0
  -32.9790   38.3245   15.7913 C   0  0  0  0  0  0  0  0  0  0  0  0
  -32.8090   36.9136   16.4222 C   0  0  0  0  0  0  0  0  0  0  0  0
  -31.5240   36.3960   16.6457 C   0  0  0  0  0  0  0  0  0  0  0  0
  -30.4235   37.1230   16.3120 O   0  0  0  0  0  0  0  0  0  0  0  0
  -31.3753   35.1185   17.2165 C   0  0  0  0  0  0  0  0  0  0  0  0
  -32.5017   34.3636   17.5626 C   0  0  0  0  0  0  0  0  0  0  0  0
  -33.7987   34.8762   17.3413 C   0  0  0  0  0  0  0  0  0  0  0  0
  -33.9414   36.1596   16.7674 C   0  0  0  0  0  0  0  0  0  0  0  0
  -35.2736   36.7200   16.5257 O   0  0  0  0  0  0  0  0  0  0  0  0
  -36.4267   36.0137   16.9315 C   0  0  0  0  0  0  0  0  0  0  0  0
  -37.5213   36.5203   16.8163 O   0  0  0  0  0  0  0  0  0  0  0  0
  -36.2951   34.6641   17.4940 C   0  0  0  0  0  0  0  0  0  0  0  0
  -35.0131   34.0993   17.6980 C   0  0  0  0  0  0  0  0  0  0  0  0
  -34.9333   32.7089   18.2781 C   0  0  0  0  0  0  0  0  0  0  0  0
  1  2  1  0  0  0  0
  2  3  2  0  0  0  0
  2  4  1  0  0  0  0
  4  5  1  0  0  0  0
  5  6  1  0  0  0  0
  6  7  1  0  0  0  0
  6  8  1  0  0  0  0
  4  9  1  0  0  0  0
  9 10  1  0  0  0  0
 10 11  1  0  0  0  0
 11 12  2  0  0  0  0
 12 13  1  0  0  0  0
 12 14  1  0  0  0  0
 14 15  2  0  0  0  0
 15 16  1  0  0  0  0
 11 17  1  0  0  0  0
 16 17  2  0  0  0  0
 17 18  1  0  0  0  0
 18 19  1  0  0  0  0
 19 20  2  0  0  0  0
 19 21  1  0  0  0  0
 16 22  1  0  0  0  0
 21 22  2  0  0  0  0
 22 23  1  0  0  0  0
M  END
$$$$
6x4h
  PyMOL3.2          3D                             0

 25 26  0  0  0  0  0  0  0  0999 V2000
  -32.4292   38.9474   14.9068 N   0  0  0  0  0  0  0  0  0  0  0  0
  -33.8187   40.2358   13.3016 C   0  0  0  0  0  0  0  0  0  0  0  0
  -33.7548   33.5166   17.9127 O   0  0  0  0  0  0  0  0  0  0  0  0
  -32.4794   40.1563   14.0669 C   0  0  0  0  0  0  0  0  0  0  0  0
  -32.3770   35.1658   17.0108 N   0  0  0  0  0  0  0  0  0  0  0  0
  -34.0871   39.5766   16.3203 O   0  0  0  0  0  0  0  0  0  0  0  0
  -33.3015   38.7096   15.9076 C   0  0  0  0  0  0  0  0  0  0  0  0
  -34.5326   39.1987   13.2877 O   0  5  0  0  0  0  0  0  0  0  0  0
  -33.3334   37.3260   16.4820 C   0  0  0  0  0  0  0  0  0  0  0  0
  -34.1188   41.3284   12.7579 O   0  0  0  0  0  0  0  0  0  0  0  0
  -34.5530   36.9019   17.0067 C   0  0  0  0  0  0  0  0  0  0  0  0
  -34.6957   35.6330   17.5192 C   0  0  0  0  0  0  0  0  0  0  0  0
  -33.5731   34.8014   17.4809 C   0  0  0  0  0  0  0  0  0  0  0  0
  -34.9563   33.0933   18.5243 C   0  0  0  0  0  0  0  0  0  0  0  0
  -36.0151   32.6576   17.7369 C   0  0  0  0  0  0  0  0  0  0  0  0
  -37.2131   32.3082   18.3330 C   0  0  0  0  0  0  0  0  0  0  0  0
  -37.3562   32.3834   19.7015 C   0  0  0  0  0  0  0  0  0  0  0  0
  -36.2982   32.7972   20.4911 C   0  0  0  0  0  0  0  0  0  0  0  0
  -35.0882   33.1517   19.9110 C   0  0  0  0  0  0  0  0  0  0  0  0
  -32.2722   36.4275   16.5183 C   0  0  0  0  0  0  0  0  0  0  0  0
  -31.3124   40.1622   13.0747 C   0  0  0  0  0  0  0  0  0  0  0  0
  -29.8942   40.5100   13.5764 C   0  0  0  0  0  0  0  0  0  0  0  0
  -29.1942   39.2937   14.1737 C   0  0  0  0  0  0  0  0  0  0  0  0
  -29.9058   41.6234   14.5954 C   0  0  0  0  0  0  0  0  0  0  0  0
  -29.0687   40.9842   12.4127 C   0  0  0  0  0  0  0  0  0  0  0  0
  1  4  1  0  0  0  0
  2  4  1  0  0  0  0
  1  7  1  0  0  0  0
  6  7  2  0  0  0  0
  2  8  1  0  0  0  0
  7  9  1  0  0  0  0
  2 10  2  0  0  0  0
  9 11  1  0  0  0  0
 11 12  2  0  0  0  0
  3 13  1  0  0  0  0
  5 13  2  0  0  0  0
 12 13  1  0  0  0  0
  3 14  1  0  0  0  0
 14 15  1  0  0  0  0
 15 16  2  0  0  0  0
 16 17  1  0  0  0  0
 17 18  2  0  0  0  0
 14 19  2  0  0  0  0
 18 19  1  0  0  0  0
  5 20  1  0  0  0  0
  9 20  2  0  0  0  0
  4 21  1  0  0  0  0
 21 22  1  0  0  0  0
 22 23  1  0  0  0  0
 22 24  1  0  0  0  0
 22 25  1  0  0  0  0
M  END
$$$$
5mri
  PyMOL3.2          3D                             0

 15 15  0  0  0  0  0  0  0  0999 V2000
  -28.5816   39.8454   11.8953 C   0  0  0  0  0  0  0  0  0  0  0  0
  -28.9755   41.0253   12.8258 C   0  0  0  0  0  0  0  0  0  0  0  0
  -29.7435   42.1114   12.0459 C   0  0  0  0  0  0  0  0  0  0  0  0
  -29.7894   40.4873   14.0838 C   0  0  0  0  0  0  0  0  0  0  0  0
  -30.8043   41.4432   14.6565 C   0  0  0  0  0  0  0  0  0  0  0  0
  -32.0602   40.9806   14.2364 N   0  0  0  0  0  0  0  0  0  0  0  0
  -32.7797   41.4843   13.2266 N   0  0  0  0  0  0  0  0  0  0  0  0
  -33.9090   40.7718   13.0987 N   0  0  0  0  0  0  0  0  0  0  0  0
  -33.8999   39.8064   14.0162 C   0  0  0  0  0  0  0  0  0  0  0  0
  -34.9078   38.8591   14.1854 O   0  0  0  0  0  0  0  0  0  0  0  0
  -32.7263   39.9299   14.7381 C   0  0  0  0  0  0  0  0  0  0  0  0
  -32.2494   39.0548   15.9370 C   0  0  0  0  0  0  0  0  0  0  0  0
  -31.9779   39.5922   17.0185 O   0  0  0  0  0  0  0  0  0  0  0  0
  -32.1194   37.6114   15.8214 N   0  0  0  0  0  0  0  0  0  0  0  0
  -31.6745   36.8772   16.9692 C   0  0  0  0  0  0  0  0  0  0  0  0
  1  2  1  0  0  0  0
  2  3  1  0  0  0  0
  2  4  1  0  0  0  0
  4  5  1  0  0  0  0
  5  6  1  0  0  0  0
  6  7  1  0  0  0  0
  7  8  2  0  0  0  0
  8  9  1  0  0  0  0
  9 10  1  0  0  0  0
  6 11  1  0  0  0  0
  9 11  2  0  0  0  0
 11 12  1  0  0  0  0
 12 13  2  0  0  0  0
 12 14  1  0  0  0  0
 14 15  1  0  0  0  0
M  END
$$$$
6x48
  PyMOL3.2          3D                             0

 21 21  0  0  0  0  0  0  0  0999 V2000
  -32.6390   38.9786   15.0925 N   0  0  0  0  0  0  0  0  0  0  0  0
  -32.8193   37.3527   16.8556 C   0  0  0  0  0  0  0  0  0  0  0  0
  -34.6324   38.7926   13.2757 O   0  0  0  0  0  0  0  0  0  0  0  0
  -33.1425   33.3982   16.9438 Cl  0  0  0  0  0  0  0  0  0  0  0  0
  -29.7082   36.7809   19.3065 Cl  0  0  0  0  0  0  0  0  0  0  0  0
  -33.4220   38.4611   16.0531 C   0  0  0  0  0  0  0  0  0  0  0  0
  -34.6572   40.9891   12.8633 O   0  5  0  0  0  0  0  0  0  0  0  0
  -32.9579   40.1619   14.3105 C   0  0  0  0  0  0  0  0  0  0  0  0
  -34.5790   38.8369   16.2554 O   0  0  0  0  0  0  0  0  0  0  0  0
  -34.1888   39.9598   13.4123 C   0  0  0  0  0  0  0  0  0  0  0  0
  -31.7925   40.5379   13.4136 C   0  0  0  0  0  0  0  0  0  0  0  0
  -30.4041   40.4999   14.0521 C   0  0  0  0  0  0  0  0  0  0  0  0
  -29.2050   40.2998   13.1217 C   0  0  0  0  0  0  0  0  0  0  0  0
  -29.3465   38.9907   12.3507 C   0  0  0  0  0  0  0  0  0  0  0  0
  -29.1089   41.4621   12.1405 C   0  0  0  0  0  0  0  0  0  0  0  0
  -27.9283   40.2426   13.9474 C   0  0  0  0  0  0  0  0  0  0  0  0
  -31.7095   37.5780   17.6686 C   0  0  0  0  0  0  0  0  0  0  0  0
  -31.0920   36.4995   18.2769 C   0  0  0  0  0  0  0  0  0  0  0  0
  -31.5362   35.2050   18.0960 C   0  0  0  0  0  0  0  0  0  0  0  0
  -32.6411   35.0129   17.2917 C   0  0  0  0  0  0  0  0  0  0  0  0
  -33.3055   36.0603   16.6917 C   0  0  0  0  0  0  0  0  0  0  0  0
  1  6  1  0  0  0  0
  2  6  1  0  0  0  0
  1  8  1  0  0  0  0
  6  9  2  0  0  0  0
  3 10  1  0  0  0  0
  7 10  2  0  0  0  0
  8 10  1  0  0  0  0
  8 11  1  0  0  0  0
 11 12  1  0  0  0  0
 12 13  1  0  0  0  0
 13 14  1  0  0  0  0
 13 15  1  0  0  0  0
 13 16  1  0  0  0  0
  2 17  1  0  0  0  0
  5 18  1  0  0  0  0
 17 18  2  0  0  0  0
 18 19  1  0  0  0  0
  4 20  1  0  0  0  0
 19 20  2  0  0  0  0
  2 21  2  0  0  0  0
 20 21  1  0  0  0  0
M  END
$$$$
