Candidata_001
     RDKit          3D

 28 29  0  0  0  0  0  0  0  0999 V2000
   -1.5909   -0.4401   -2.5824 O   0  0  0  0  0  0  0  0  0  0  0  0
   -1.5490   -0.7589   -1.4089 C   0  0  0  0  0  0  0  0  0  0  0  0
   -1.4164   -2.0421   -1.0353 O   0  0  0  0  0  0  0  0  0  0  0  0
   -1.7687    0.1481   -0.2600 C   0  0  0  0  0  0  0  0  0  0  0  0
   -2.7589    1.1268   -0.4451 C   0  0  0  0  0  0  0  0  0  0  0  0
   -3.0544    2.0219    0.5782 C   0  0  0  0  0  0  0  0  0  0  0  0
   -4.3969    3.3282    0.3262 Br  0  0  0  0  0  0  0  0  0  0  0  0
   -2.3693    1.9607    1.7869 C   0  0  0  0  0  0  0  0  0  0  0  0
   -1.3703    1.0022    1.9694 C   0  0  0  0  0  0  0  0  0  0  0  0
   -1.0445    0.0860    0.9494 C   0  0  0  0  0  0  0  0  0  0  0  0
    0.0936   -0.8853    1.1960 C   0  0  0  0  0  0  0  0  0  0  0  0
    1.3107   -0.6738    0.3213 C   0  0  0  0  0  0  0  0  0  0  0  0
    1.8598   -1.7491   -0.3925 C   0  0  0  0  0  0  0  0  0  0  0  0
    2.9926   -1.5703   -1.1883 C   0  0  0  0  0  0  0  0  0  0  0  0
    3.5954   -0.3173   -1.2726 C   0  0  0  0  0  0  0  0  0  0  0  0
    3.0691    0.7564   -0.5579 C   0  0  0  0  0  0  0  0  0  0  0  0
    1.9367    0.5792    0.2389 C   0  0  0  0  0  0  0  0  0  0  0  0
   -1.3288   -2.5172   -1.8882 H   0  0  0  0  0  0  0  0  0  0  0  0
   -3.2972    1.1792   -1.3897 H   0  0  0  0  0  0  0  0  0  0  0  0
   -2.5970    2.6577    2.5897 H   0  0  0  0  0  0  0  0  0  0  0  0
   -0.8339    0.9832    2.9171 H   0  0  0  0  0  0  0  0  0  0  0  0
   -0.2859   -1.9100    1.1114 H   0  0  0  0  0  0  0  0  0  0  0  0
    0.4332   -0.8073    2.2381 H   0  0  0  0  0  0  0  0  0  0  0  0
    1.4043   -2.7353   -0.3360 H   0  0  0  0  0  0  0  0  0  0  0  0
    3.4052   -2.4092   -1.7425 H   0  0  0  0  0  0  0  0  0  0  0  0
    4.4759   -0.1776   -1.8940 H   0  0  0  0  0  0  0  0  0  0  0  0
    3.5403    1.7338   -0.6211 H   0  0  0  0  0  0  0  0  0  0  0  0
    1.5451    1.4301    0.7919 H   0  0  0  0  0  0  0  0  0  0  0  0
  1  2  2  0
  2  3  1  0
  2  4  1  0
  4  5  1  0
  5  6  2  0
  6  7  1  0
  6  8  1  0
  8  9  2  0
  9 10  1  0
 10 11  1  0
 11 12  1  0
 12 13  2  0
 13 14  1  0
 14 15  2  0
 15 16  1  0
 16 17  2  0
 10  4  2  0
 17 12  1  0
  3 18  1  0
  5 19  1  0
  8 20  1  0
  9 21  1  0
 11 22  1  0
 11 23  1  0
 13 24  1  0
 14 25  1  0
 15 26  1  0
 16 27  1  0
 17 28  1  0
M  END
>  <Rank>  (1) 
1

>  <Score>  (1) 
0.9110

>  <Pharma_Score>  (1) 
1.0000

>  <QED>  (1) 
0.9350

>  <MW>  (1) 
291.14

>  <LogP>  (1) 
3.74

>  <PSA>  (1) 
37.3

>  <SA_Score>  (1) 
1.66

>  <HBD>  (1) 
1

>  <HBA>  (1) 
1

>  <Lip_Violations>  (1) 
0

>  <SMILES>  (1) 
O=C(O)c1cc(Br)ccc1Cc1ccccc1

$$$$
Candidata_002
     RDKit          3D

 25 26  0  0  0  0  0  0  0  0999 V2000
   -0.0879    2.4728   -0.7822 O   0  0  0  0  0  0  0  0  0  0  0  0
    0.8805    2.0775   -0.1653 C   0  0  0  0  0  0  0  0  0  0  0  0
    1.6077    2.9105    0.6037 O   0  0  0  0  0  0  0  0  0  0  0  0
    1.4284    0.7008   -0.1257 C   0  0  0  0  0  0  0  0  0  0  0  0
    2.8247    0.5419   -0.1604 C   0  0  0  0  0  0  0  0  0  0  0  0
    3.3786   -0.7349   -0.1697 C   0  0  0  0  0  0  0  0  0  0  0  0
    5.2563   -0.9437   -0.2199 Br  0  0  0  0  0  0  0  0  0  0  0  0
    2.5596   -1.8588   -0.1471 C   0  0  0  0  0  0  0  0  0  0  0  0
    1.1717   -1.7026   -0.1091 C   0  0  0  0  0  0  0  0  0  0  0  0
    0.5788   -0.4246   -0.0950 C   0  0  0  0  0  0  0  0  0  0  0  0
   -0.8849   -0.3321   -0.0081 C   0  0  0  0  0  0  0  0  0  0  0  0
   -1.6885   -0.5823   -1.1310 C   0  0  0  0  0  0  0  0  0  0  0  0
   -3.0807   -0.5133   -1.0422 C   0  0  0  0  0  0  0  0  0  0  0  0
   -3.6875   -0.1973    0.1714 C   0  0  0  0  0  0  0  0  0  0  0  0
   -2.9043    0.0508    1.2966 C   0  0  0  0  0  0  0  0  0  0  0  0
   -1.5120   -0.0171    1.2080 C   0  0  0  0  0  0  0  0  0  0  0  0
    1.1437    3.7696    0.5128 H   0  0  0  0  0  0  0  0  0  0  0  0
    3.4709    1.4162   -0.1890 H   0  0  0  0  0  0  0  0  0  0  0  0
    2.9861   -2.8588   -0.1541 H   0  0  0  0  0  0  0  0  0  0  0  0
    0.5424   -2.5917   -0.0789 H   0  0  0  0  0  0  0  0  0  0  0  0
   -1.2305   -0.8207   -2.0886 H   0  0  0  0  0  0  0  0  0  0  0  0
   -3.6897   -0.6996   -1.9228 H   0  0  0  0  0  0  0  0  0  0  0  0
   -4.7707   -0.1393    0.2388 H   0  0  0  0  0  0  0  0  0  0  0  0
   -3.3764    0.3000    2.2432 H   0  0  0  0  0  0  0  0  0  0  0  0
   -0.9163    0.1767    2.0974 H   0  0  0  0  0  0  0  0  0  0  0  0
  1  2  2  0
  2  3  1  0
  2  4  1  0
  4  5  1  0
  5  6  2  0
  6  7  1  0
  6  8  1  0
  8  9  2  0
  9 10  1  0
 10 11  1  0
 11 12  2  0
 12 13  1  0
 13 14  2  0
 14 15  1  0
 15 16  2  0
 10  4  2  0
 16 11  1  0
  3 17  1  0
  5 18  1  0
  8 19  1  0
  9 20  1  0
 12 21  1  0
 13 22  1  0
 14 23  1  0
 15 24  1  0
 16 25  1  0
M  END
>  <Rank>  (2) 
2

>  <Score>  (2) 
0.9060

>  <Pharma_Score>  (2) 
1.0000

>  <QED>  (2) 
0.9060

>  <MW>  (2) 
277.12

>  <LogP>  (2) 
3.81

>  <PSA>  (2) 
37.3

>  <SA_Score>  (2) 
1.53

>  <HBD>  (2) 
1

>  <HBA>  (2) 
1

>  <Lip_Violations>  (2) 
0

>  <SMILES>  (2) 
O=C(O)c1cc(Br)ccc1-c1ccccc1

$$$$
Candidata_003
     RDKit          3D

 27 28  0  0  0  0  0  0  0  0999 V2000
   -1.6016    0.4758   -2.0892 O   0  0  0  0  0  0  0  0  0  0  0  0
   -2.3934    0.3287   -1.1795 C   0  0  0  0  0  0  0  0  0  0  0  0
   -3.7046    0.5866   -1.3233 O   0  0  0  0  0  0  0  0  0  0  0  0
   -2.0809   -0.1629    0.1756 C   0  0  0  0  0  0  0  0  0  0  0  0
   -2.9699   -1.0340    0.8214 C   0  0  0  0  0  0  0  0  0  0  0  0
   -2.6445   -1.5468    2.0773 C   0  0  0  0  0  0  0  0  0  0  0  0
   -3.8411   -2.7256    2.9447 Br  0  0  0  0  0  0  0  0  0  0  0  0
   -1.4443   -1.2019    2.7002 C   0  0  0  0  0  0  0  0  0  0  0  0
   -0.5586   -0.3308    2.0638 C   0  0  0  0  0  0  0  0  0  0  0  0
   -0.8747    0.1794    0.7970 C   0  0  0  0  0  0  0  0  0  0  0  0
    0.0394    1.1673    0.2003 C   0  0  0  0  0  0  0  0  0  0  0  0
   -0.3061    2.3443    0.2346 O   0  0  0  0  0  0  0  0  0  0  0  0
    1.3530    0.7527   -0.3647 C   0  0  0  0  0  0  0  0  0  0  0  0
    1.6778   -0.5901   -0.5964 C   0  0  0  0  0  0  0  0  0  0  0  0
    2.9285   -0.9261   -1.1215 C   0  0  0  0  0  0  0  0  0  0  0  0
    3.8550    0.0727   -1.4197 C   0  0  0  0  0  0  0  0  0  0  0  0
    3.5335    1.4109   -1.1997 C   0  0  0  0  0  0  0  0  0  0  0  0
    2.2851    1.7511   -0.6760 C   0  0  0  0  0  0  0  0  0  0  0  0
   -3.7771    0.9497   -2.2317 H   0  0  0  0  0  0  0  0  0  0  0  0
   -3.9054   -1.3127    0.3415 H   0  0  0  0  0  0  0  0  0  0  0  0
   -1.1978   -1.5939    3.6844 H   0  0  0  0  0  0  0  0  0  0  0  0
    0.3615   -0.0359    2.5644 H   0  0  0  0  0  0  0  0  0  0  0  0
    0.9716   -1.3895   -0.3934 H   0  0  0  0  0  0  0  0  0  0  0  0
    3.1780   -1.9681   -1.3066 H   0  0  0  0  0  0  0  0  0  0  0  0
    4.8256   -0.1913   -1.8326 H   0  0  0  0  0  0  0  0  0  0  0  0
    4.2510    2.1913   -1.4403 H   0  0  0  0  0  0  0  0  0  0  0  0
    2.0400    2.7991   -0.5135 H   0  0  0  0  0  0  0  0  0  0  0  0
  1  2  2  0
  2  3  1  0
  2  4  1  0
  4  5  1  0
  5  6  2  0
  6  7  1  0
  6  8  1  0
  8  9  2  0
  9 10  1  0
 10 11  1  0
 11 12  2  0
 11 13  1  0
 13 14  2  0
 14 15  1  0
 15 16  2  0
 16 17  1  0
 17 18  2  0
 10  4  2  0
 18 13  1  0
  3 19  1  0
  5 20  1  0
  8 21  1  0
  9 22  1  0
 14 23  1  0
 15 24  1  0
 16 25  1  0
 17 26  1  0
 18 27  1  0
M  END
>  <Rank>  (3) 
3

>  <Score>  (3) 
0.8940

>  <Pharma_Score>  (3) 
1.0000

>  <QED>  (3) 
0.8840

>  <MW>  (3) 
305.13

>  <LogP>  (3) 
3.38

>  <PSA>  (3) 
54.4

>  <SA_Score>  (3) 
1.64

>  <HBD>  (3) 
1

>  <HBA>  (3) 
2

>  <Lip_Violations>  (3) 
0

>  <SMILES>  (3) 
O=C(O)c1cc(Br)ccc1C(=O)c1ccccc1

$$$$
Candidata_004
     RDKit          3D

 18 18  0  0  0  0  0  0  0  0999 V2000
   -2.0355   -1.7518   -1.4343 O   0  0  0  0  0  0  0  0  0  0  0  0
   -1.2162   -1.5673   -0.5540 C   0  0  0  0  0  0  0  0  0  0  0  0
   -0.8514   -2.5542    0.2784 O   0  0  0  0  0  0  0  0  0  0  0  0
   -0.6072   -0.2625   -0.2021 C   0  0  0  0  0  0  0  0  0  0  0  0
   -1.4466    0.8530   -0.3641 C   0  0  0  0  0  0  0  0  0  0  0  0
   -0.9791    2.1293   -0.0677 C   0  0  0  0  0  0  0  0  0  0  0  0
   -2.1197    3.6214   -0.2780 Br  0  0  0  0  0  0  0  0  0  0  0  0
    0.3234    2.3140    0.3809 C   0  0  0  0  0  0  0  0  0  0  0  0
    1.1684    1.2115    0.5274 C   0  0  0  0  0  0  0  0  0  0  0  0
    0.7240   -0.0950    0.2385 C   0  0  0  0  0  0  0  0  0  0  0  0
    1.7137   -1.2190    0.3686 C   0  0  0  0  0  0  0  0  0  0  0  0
    2.3159   -1.7721   -1.3959 Br  0  0  0  0  0  0  0  0  0  0  0  0
   -1.3586   -3.3296   -0.0442 H   0  0  0  0  0  0  0  0  0  0  0  0
   -2.4658    0.7159   -0.7218 H   0  0  0  0  0  0  0  0  0  0  0  0
    0.6960    3.3097    0.6090 H   0  0  0  0  0  0  0  0  0  0  0  0
    2.1915    1.3840    0.8600 H   0  0  0  0  0  0  0  0  0  0  0  0
    1.3294   -2.0887    0.9019 H   0  0  0  0  0  0  0  0  0  0  0  0
    2.6177   -0.8986    0.8974 H   0  0  0  0  0  0  0  0  0  0  0  0
  1  2  2  0
  2  3  1  0
  2  4  1  0
  4  5  1  0
  5  6  2  0
  6  7  1  0
  6  8  1  0
  8  9  2  0
  9 10  1  0
 10 11  1  0
 11 12  1  0
 10  4  2  0
  3 13  1  0
  5 14  1  0
  8 15  1  0
  9 16  1  0
 11 17  1  0
 11 18  1  0
M  END
>  <Rank>  (4) 
4

>  <Score>  (4) 
0.8640

>  <Pharma_Score>  (4) 
1.0000

>  <QED>  (4) 
0.8510

>  <MW>  (4) 
293.94

>  <LogP>  (4) 
3.04

>  <PSA>  (4) 
37.3

>  <SA_Score>  (4) 
2.09

>  <HBD>  (4) 
1

>  <HBA>  (4) 
1

>  <Lip_Violations>  (4) 
0

>  <SMILES>  (4) 
O=C(O)c1cc(Br)ccc1CBr

$$$$
Candidata_005
     RDKit          3D

 18 18  0  0  0  0  0  0  0  0999 V2000
   -1.7742   -1.1881    0.0286 C   0  0  0  0  0  0  0  0  0  0  0  0
   -0.3592   -0.6795    0.0141 C   0  0  0  0  0  0  0  0  0  0  0  0
    0.6863   -1.6160   -0.0771 C   0  0  0  0  0  0  0  0  0  0  0  0
    2.0211   -1.2062   -0.0715 C   0  0  0  0  0  0  0  0  0  0  0  0
    2.3268    0.1472    0.0245 C   0  0  0  0  0  0  0  0  0  0  0  0
    4.1338    0.7014    0.0427 Br  0  0  0  0  0  0  0  0  0  0  0  0
    1.3111    1.0957    0.1024 C   0  0  0  0  0  0  0  0  0  0  0  0
   -0.0339    0.6914    0.0799 C   0  0  0  0  0  0  0  0  0  0  0  0
   -1.0344    1.7846    0.1519 C   0  0  0  0  0  0  0  0  0  0  0  0
   -0.8755    2.8508    0.7176 O   0  0  0  0  0  0  0  0  0  0  0  0
   -2.1467    1.5324   -0.5563 O   0  0  0  0  0  0  0  0  0  0  0  0
   -2.3609   -0.6876    0.8055 H   0  0  0  0  0  0  0  0  0  0  0  0
   -2.2427   -1.0396   -0.9489 H   0  0  0  0  0  0  0  0  0  0  0  0
   -1.8075   -2.2595    0.2557 H   0  0  0  0  0  0  0  0  0  0  0  0
    0.4659   -2.6802   -0.1454 H   0  0  0  0  0  0  0  0  0  0  0  0
    2.8107   -1.9506   -0.1372 H   0  0  0  0  0  0  0  0  0  0  0  0
    1.5575    2.1536    0.1736 H   0  0  0  0  0  0  0  0  0  0  0  0
   -2.6780    2.3504   -0.4600 H   0  0  0  0  0  0  0  0  0  0  0  0
  1  2  1  0
  2  3  1  0
  3  4  2  0
  4  5  1  0
  5  6  1  0
  5  7  2  0
  7  8  1  0
  8  9  1  0
  9 10  2  0
  9 11  1  0
  8  2  2  0
  1 12  1  0
  1 13  1  0
  1 14  1  0
  3 15  1  0
  4 16  1  0
  7 17  1  0
 11 18  1  0
M  END
>  <Rank>  (5) 
5

>  <Score>  (5) 
0.8600

>  <Pharma_Score>  (5) 
1.0000

>  <QED>  (5) 
0.7810

>  <MW>  (5) 
215.05

>  <LogP>  (5) 
2.46

>  <PSA>  (5) 
37.3

>  <SA_Score>  (5) 
1.59

>  <HBD>  (5) 
1

>  <HBA>  (5) 
1

>  <Lip_Violations>  (5) 
0

>  <SMILES>  (5) 
Cc1ccc(Br)cc1C(=O)O

$$$$
Candidata_006
     RDKit          3D

 31 32  0  0  0  0  0  0  0  0999 V2000
   -3.7515   -2.7821   -1.0505 O   0  0  0  0  0  0  0  0  0  0  0  0
   -2.8237   -2.2192   -0.5014 C   0  0  0  0  0  0  0  0  0  0  0  0
   -1.7671   -2.8965   -0.0247 O   0  0  0  0  0  0  0  0  0  0  0  0
   -2.7581   -0.7770   -0.1808 C   0  0  0  0  0  0  0  0  0  0  0  0
   -3.9454   -0.2098    0.3088 C   0  0  0  0  0  0  0  0  0  0  0  0
   -3.9810    1.1374    0.6560 C   0  0  0  0  0  0  0  0  0  0  0  0
   -5.5778    1.8921    1.3290 Br  0  0  0  0  0  0  0  0  0  0  0  0
   -2.8479    1.9318    0.5152 C   0  0  0  0  0  0  0  0  0  0  0  0
   -1.6712    1.3761    0.0088 C   0  0  0  0  0  0  0  0  0  0  0  0
   -1.6077    0.0180   -0.3608 C   0  0  0  0  0  0  0  0  0  0  0  0
   -0.3114   -0.5017   -0.9459 C   0  0  0  0  0  0  0  0  0  0  0  0
    0.7231   -0.7800    0.1115 C   0  0  0  0  0  0  0  0  0  0  0  0
    1.9375   -0.2043    0.2258 C   0  0  0  0  0  0  0  0  0  0  0  0
    2.8181   -0.5963    1.3202 C   0  0  0  0  0  0  0  0  0  0  0  0
    4.0354   -0.0609    1.4932 C   0  0  0  0  0  0  0  0  0  0  0  0
    4.5583    0.9437    0.6031 C   0  0  0  0  0  0  0  0  0  0  0  0
    3.8316    1.3741   -0.4368 C   0  0  0  0  0  0  0  0  0  0  0  0
    2.4517    0.8523   -0.7421 C   0  0  0  0  0  0  0  0  0  0  0  0
   -1.9619   -3.8312   -0.2468 H   0  0  0  0  0  0  0  0  0  0  0  0
   -4.8337   -0.8280    0.4229 H   0  0  0  0  0  0  0  0  0  0  0  0
   -2.8686    2.9834    0.7905 H   0  0  0  0  0  0  0  0  0  0  0  0
   -0.7949    2.0133   -0.1016 H   0  0  0  0  0  0  0  0  0  0  0  0
    0.0461    0.2308   -1.6796 H   0  0  0  0  0  0  0  0  0  0  0  0
   -0.4801   -1.4100   -1.5341 H   0  0  0  0  0  0  0  0  0  0  0  0
    0.4265   -1.5373    0.8370 H   0  0  0  0  0  0  0  0  0  0  0  0
    2.4691   -1.3506    2.0206 H   0  0  0  0  0  0  0  0  0  0  0  0
    4.6632   -0.3773    2.3208 H   0  0  0  0  0  0  0  0  0  0  0  0
    5.5507    1.3377    0.7982 H   0  0  0  0  0  0  0  0  0  0  0  0
    4.2367    2.1309   -1.1016 H   0  0  0  0  0  0  0  0  0  0  0  0
    1.7644    1.7070   -0.7417 H   0  0  0  0  0  0  0  0  0  0  0  0
    2.4695    0.4333   -1.7558 H   0  0  0  0  0  0  0  0  0  0  0  0
  1  2  2  0
  2  3  1  0
  2  4  1  0
  4  5  1  0
  5  6  2  0
  6  7  1  0
  6  8  1  0
  8  9  2  0
  9 10  1  0
 10 11  1  0
 11 12  1  0
 12 13  2  3
 13 14  1  0
 14 15  2  0
 15 16  1  0
 16 17  2  0
 17 18  1  0
 10  4  2  0
 18 13  1  0
  3 19  1  0
  5 20  1  0
  8 21  1  0
  9 22  1  0
 11 23  1  0
 11 24  1  0
 12 25  1  0
 14 26  1  0
 15 27  1  0
 16 28  1  0
 17 29  1  0
 18 30  1  0
 18 31  1  0
M  END
>  <Rank>  (6) 
6

>  <Score>  (6) 
0.8470

>  <Pharma_Score>  (6) 
1.0000

>  <QED>  (6) 
0.9110

>  <MW>  (6) 
305.17

>  <LogP>  (6) 
4.13

>  <PSA>  (6) 
37.3

>  <SA_Score>  (6) 
3.04

>  <HBD>  (6) 
1

>  <HBA>  (6) 
1

>  <Lip_Violations>  (6) 
0

>  <SMILES>  (6) 
O=C(O)c1cc(Br)ccc1CC=C1C=CC=CC1

$$$$
Candidata_007
     RDKit          3D

 30 30  0  0  0  0  0  0  0  0999 V2000
    5.3143    1.7060   -0.2048 C   0  0  0  0  0  0  0  0  0  0  0  0
    4.5930    0.6597    0.2140 C   0  0  0  0  0  0  0  0  0  0  0  0
    3.1866    0.5068   -0.0779 C   0  0  0  0  0  0  0  0  0  0  0  0
    2.4649   -0.5422    0.3450 C   0  0  0  0  0  0  0  0  0  0  0  0
    1.0567   -0.6937    0.0515 C   0  0  0  0  0  0  0  0  0  0  0  0
    0.3335   -1.7399    0.4828 C   0  0  0  0  0  0  0  0  0  0  0  0
   -1.1308   -2.0057    0.2444 C   0  0  0  0  0  0  0  0  0  0  0  0
   -1.9498   -0.8595   -0.3105 C   0  0  0  0  0  0  0  0  0  0  0  0
   -2.3582   -0.9267   -1.6574 C   0  0  0  0  0  0  0  0  0  0  0  0
   -3.0733    0.1170   -2.2485 C   0  0  0  0  0  0  0  0  0  0  0  0
   -3.3825    1.2499   -1.5039 C   0  0  0  0  0  0  0  0  0  0  0  0
   -4.3377    2.6689   -2.3078 Br  0  0  0  0  0  0  0  0  0  0  0  0
   -2.9896    1.3470   -0.1726 C   0  0  0  0  0  0  0  0  0  0  0  0
   -2.2861    0.2928    0.4331 C   0  0  0  0  0  0  0  0  0  0  0  0
   -1.9018    0.5144    1.8462 C   0  0  0  0  0  0  0  0  0  0  0  0
   -1.5590    1.5801    2.3240 O   0  0  0  0  0  0  0  0  0  0  0  0
   -2.0697   -0.5744    2.6121 O   0  0  0  0  0  0  0  0  0  0  0  0
    6.3694    1.7806    0.0392 H   0  0  0  0  0  0  0  0  0  0  0  0
    4.8813    2.5088   -0.7931 H   0  0  0  0  0  0  0  0  0  0  0  0
    5.0790   -0.1155    0.8026 H   0  0  0  0  0  0  0  0  0  0  0  0
    2.7146    1.2913   -0.6662 H   0  0  0  0  0  0  0  0  0  0  0  0
    2.9376   -1.3236    0.9362 H   0  0  0  0  0  0  0  0  0  0  0  0
    0.5961    0.0874   -0.5496 H   0  0  0  0  0  0  0  0  0  0  0  0
    0.8269   -2.5101    1.0744 H   0  0  0  0  0  0  0  0  0  0  0  0
   -1.1952   -2.8636   -0.4387 H   0  0  0  0  0  0  0  0  0  0  0  0
   -1.5924   -2.3689    1.1682 H   0  0  0  0  0  0  0  0  0  0  0  0
   -2.1088   -1.7965   -2.2638 H   0  0  0  0  0  0  0  0  0  0  0  0
   -3.3741    0.0381   -3.2904 H   0  0  0  0  0  0  0  0  0  0  0  0
   -3.2263    2.2401    0.4028 H   0  0  0  0  0  0  0  0  0  0  0  0
   -1.8183   -0.2686    3.5088 H   0  0  0  0  0  0  0  0  0  0  0  0
  1  2  2  0
  2  3  1  0
  3  4  2  3
  4  5  1  0
  5  6  2  3
  6  7  1  0
  7  8  1  0
  8  9  1  0
  9 10  2  0
 10 11  1  0
 11 12  1  0
 11 13  2  0
 13 14  1  0
 14 15  1  0
 15 16  2  0
 15 17  1  0
 14  8  2  0
  1 18  1  0
  1 19  1  0
  2 20  1  0
  3 21  1  0
  4 22  1  0
  5 23  1  0
  6 24  1  0
  7 25  1  0
  7 26  1  0
  9 27  1  0
 10 28  1  0
 13 29  1  0
 17 30  1  0
M  END
>  <Rank>  (7) 
7

>  <Score>  (7) 
0.8300

>  <Pharma_Score>  (7) 
1.0000

>  <QED>  (7) 
0.8330

>  <MW>  (7) 
293.16

>  <LogP>  (7) 
3.99

>  <PSA>  (7) 
37.3

>  <SA_Score>  (7) 
2.80

>  <HBD>  (7) 
1

>  <HBA>  (7) 
1

>  <Lip_Violations>  (7) 
0

>  <SMILES>  (7) 
C=CC=CC=CCc1ccc(Br)cc1C(=O)O

$$$$
Candidata_008
     RDKit          3D

 27 28  0  0  0  0  0  0  0  0999 V2000
   -0.5341    0.5232   -3.0104 O   0  0  0  0  0  0  0  0  0  0  0  0
   -1.3541    1.0112   -2.2584 C   0  0  0  0  0  0  0  0  0  0  0  0
   -2.1421    2.0312   -2.6436 O   0  0  0  0  0  0  0  0  0  0  0  0
   -1.6234    0.6157   -0.8544 C   0  0  0  0  0  0  0  0  0  0  0  0
   -2.9631    0.6050   -0.4263 C   0  0  0  0  0  0  0  0  0  0  0  0
   -3.2833    0.1740    0.8575 C   0  0  0  0  0  0  0  0  0  0  0  0
   -5.0875    0.1581    1.4208 Br  0  0  0  0  0  0  0  0  0  0  0  0
   -2.2865   -0.2591    1.7233 C   0  0  0  0  0  0  0  0  0  0  0  0
   -0.9543   -0.2469    1.3049 C   0  0  0  0  0  0  0  0  0  0  0  0
   -0.5902    0.2085    0.0183 C   0  0  0  0  0  0  0  0  0  0  0  0
    0.8861    0.2244   -0.3816 C   0  0  0  0  0  0  0  0  0  0  0  0
    1.7569    0.8595    0.6921 C   0  0  0  0  0  0  0  0  0  0  0  0
    2.7881    0.2306    1.2818 C   0  0  0  0  0  0  0  0  0  0  0  0
    3.2035   -1.1734    0.9412 C   0  0  0  0  0  0  0  0  0  0  0  0
    2.3850   -1.7917   -0.1568 C   0  0  0  0  0  0  0  0  0  0  0  0
    1.3546   -1.1678   -0.7527 C   0  0  0  0  0  0  0  0  0  0  0  0
   -1.8677    2.2095   -3.5678 H   0  0  0  0  0  0  0  0  0  0  0  0
   -3.7538    0.9195   -1.1037 H   0  0  0  0  0  0  0  0  0  0  0  0
   -2.5302   -0.6097    2.7230 H   0  0  0  0  0  0  0  0  0  0  0  0
   -0.1890   -0.5987    1.9962 H   0  0  0  0  0  0  0  0  0  0  0  0
    1.0303    0.8666   -1.2566 H   0  0  0  0  0  0  0  0  0  0  0  0
    1.5192    1.8812    0.9777 H   0  0  0  0  0  0  0  0  0  0  0  0
    3.3689    0.7463    2.0416 H   0  0  0  0  0  0  0  0  0  0  0  0
    4.2553   -1.1644    0.6338 H   0  0  0  0  0  0  0  0  0  0  0  0
    3.1257   -1.7965    1.8390 H   0  0  0  0  0  0  0  0  0  0  0  0
    2.6649   -2.7907   -0.4797 H   0  0  0  0  0  0  0  0  0  0  0  0
    0.8209   -1.6657   -1.5593 H   0  0  0  0  0  0  0  0  0  0  0  0
  1  2  2  0
  2  3  1  0
  2  4  1  0
  4  5  1  0
  5  6  2  0
  6  7  1  0
  6  8  1  0
  8  9  2  0
  9 10  1  0
 10 11  1  0
 11 12  1  0
 12 13  2  0
 13 14  1  0
 14 15  1  0
 15 16  2  0
 10  4  2  0
 16 11  1  0
  3 17  1  0
  5 18  1  0
  8 19  1  0
  9 20  1  0
 11 21  1  0
 12 22  1  0
 13 23  1  0
 14 24  1  0
 14 25  1  0
 15 26  1  0
 16 27  1  0
M  END
>  <Rank>  (8) 
8

>  <Score>  (8) 
0.8270

>  <Pharma_Score>  (8) 
1.0000

>  <QED>  (8) 
0.8370

>  <MW>  (8) 
279.13

>  <LogP>  (8) 
3.75

>  <PSA>  (8) 
37.3

>  <SA_Score>  (8) 
2.89

>  <HBD>  (8) 
1

>  <HBA>  (8) 
1

>  <Lip_Violations>  (8) 
0

>  <SMILES>  (8) 
O=C(O)c1cc(Br)ccc1C1C=CCC=C1

$$$$
Candidata_009
     RDKit          3D

 41 43  0  0  0  0  0  0  0  0999 V2000
    0.1522    1.8211    0.5586 O   0  0  0  0  0  0  0  0  0  0  0  0
   -0.8019    1.2833    0.0310 C   0  0  0  0  0  0  0  0  0  0  0  0
   -0.6971    0.5399   -1.0841 O   0  0  0  0  0  0  0  0  0  0  0  0
   -2.2009    1.3275    0.5057 C   0  0  0  0  0  0  0  0  0  0  0  0
   -3.1883    1.6878   -0.4245 C   0  0  0  0  0  0  0  0  0  0  0  0
   -4.5156    1.7896   -0.0198 C   0  0  0  0  0  0  0  0  0  0  0  0
   -5.8441    2.2786   -1.2725 Br  0  0  0  0  0  0  0  0  0  0  0  0
   -4.8725    1.5368    1.3015 C   0  0  0  0  0  0  0  0  0  0  0  0
   -3.8925    1.1714    2.2275 C   0  0  0  0  0  0  0  0  0  0  0  0
   -2.5406    1.0623    1.8486 C   0  0  0  0  0  0  0  0  0  0  0  0
   -1.5376    0.5836    2.8787 C   0  0  0  0  0  0  0  0  0  0  0  0
   -1.4892   -0.9204    2.9541 C   0  0  0  0  0  0  0  0  0  0  0  0
   -0.5463   -1.7511    2.4804 C   0  0  0  0  0  0  0  0  0  0  0  0
    0.6510   -1.3619    1.7782 C   0  0  0  0  0  0  0  0  0  0  0  0
    1.4151   -2.2111    1.1305 C   0  0  0  0  0  0  0  0  0  0  0  0
    1.7740   -3.4702    0.6798 C   0  0  0  0  0  0  0  0  0  0  0  0
    2.5120   -2.4348    0.3243 C   0  0  0  0  0  0  0  0  0  0  0  0
    3.6097   -1.8378   -0.4073 C   0  0  0  0  0  0  0  0  0  0  0  0
    3.1622   -0.7355   -1.3406 C   0  0  0  0  0  0  0  0  0  0  0  0
    2.6964   -1.0362   -2.6287 C   0  0  0  0  0  0  0  0  0  0  0  0
    2.2686   -0.0185   -3.4835 C   0  0  0  0  0  0  0  0  0  0  0  0
    2.2966    1.3086   -3.0590 C   0  0  0  0  0  0  0  0  0  0  0  0
    2.7452    1.6184   -1.7768 C   0  0  0  0  0  0  0  0  0  0  0  0
    3.1714    0.6021   -0.9197 C   0  0  0  0  0  0  0  0  0  0  0  0
    0.2661    0.4969   -1.2773 H   0  0  0  0  0  0  0  0  0  0  0  0
   -2.9119    1.8906   -1.4565 H   0  0  0  0  0  0  0  0  0  0  0  0
   -5.9091    1.6130    1.6203 H   0  0  0  0  0  0  0  0  0  0  0  0
   -4.1920    0.9599    3.2528 H   0  0  0  0  0  0  0  0  0  0  0  0
   -1.8343    0.9630    3.8661 H   0  0  0  0  0  0  0  0  0  0  0  0
   -0.5527    1.0258    2.7169 H   0  0  0  0  0  0  0  0  0  0  0  0
   -2.3442   -1.3782    3.4510 H   0  0  0  0  0  0  0  0  0  0  0  0
   -0.7019   -2.8228    2.6047 H   0  0  0  0  0  0  0  0  0  0  0  0
    0.9274   -0.3130    1.7556 H   0  0  0  0  0  0  0  0  0  0  0  0
    1.6275   -4.5095    0.5799 H   0  0  0  0  0  0  0  0  0  0  0  0
    4.1377   -2.6044   -0.9879 H   0  0  0  0  0  0  0  0  0  0  0  0
    4.3517   -1.4391    0.2955 H   0  0  0  0  0  0  0  0  0  0  0  0
    2.6653   -2.0680   -2.9729 H   0  0  0  0  0  0  0  0  0  0  0  0
    1.9151   -0.2622   -4.4824 H   0  0  0  0  0  0  0  0  0  0  0  0
    1.9663    2.1013   -3.7257 H   0  0  0  0  0  0  0  0  0  0  0  0
    2.7558    2.6514   -1.4365 H   0  0  0  0  0  0  0  0  0  0  0  0
    3.5054    0.8618    0.0832 H   0  0  0  0  0  0  0  0  0  0  0  0
  1  2  2  0
  2  3  1  0
  2  4  1  0
  4  5  1  0
  5  6  2  0
  6  7  1  0
  6  8  1  0
  8  9  2  0
  9 10  1  0
 10 11  1  0
 11 12  1  0
 12 13  2  3
 13 14  1  0
 14 15  2  3
 15 16  1  0
 16 17  2  0
 17 18  1  0
 18 19  1  0
 19 20  2  0
 20 21  1  0
 21 22  2  0
 22 23  1  0
 23 24  2  0
 10  4  2  0
 17 15  1  0
 24 19  1  0
  3 25  1  0
  5 26  1  0
  8 27  1  0
  9 28  1  0
 11 29  1  0
 11 30  1  0
 12 31  1  0
 13 32  1  0
 14 33  1  0
 16 34  1  0
 18 35  1  0
 18 36  1  0
 20 37  1  0
 21 38  1  0
 22 39  1  0
 23 40  1  0
 24 41  1  0
M  END
>  <Rank>  (9) 
9

>  <Score>  (9) 
0.7970

>  <Pharma_Score>  (9) 
1.0000

>  <QED>  (9) 
0.7320

>  <MW>  (9) 
381.27

>  <LogP>  (9) 
5.36

>  <PSA>  (9) 
37.3

>  <SA_Score>  (9) 
2.74

>  <HBD>  (9) 
1

>  <HBA>  (9) 
1

>  <Lip_Violations>  (9) 
1

>  <SMILES>  (9) 
O=C(O)c1cc(Br)ccc1CC=CC=C1C=C1Cc1ccccc1

$$$$
Candidata_010
     RDKit          3D

 29 30  0  0  0  0  0  0  0  0999 V2000
    3.7537    2.2345   -1.2507 O   0  0  0  0  0  0  0  0  0  0  0  0
    2.7179    1.5997   -1.1940 C   0  0  0  0  0  0  0  0  0  0  0  0
    1.6506    1.9196   -1.9432 O   0  0  0  0  0  0  0  0  0  0  0  0
    2.5069    0.3615   -0.4133 C   0  0  0  0  0  0  0  0  0  0  0  0
    3.5666   -0.5591   -0.4384 C   0  0  0  0  0  0  0  0  0  0  0  0
    3.4582   -1.7636    0.2503 C   0  0  0  0  0  0  0  0  0  0  0  0
    4.8819   -3.0057    0.2002 Br  0  0  0  0  0  0  0  0  0  0  0  0
    2.3072   -2.0618    0.9720 C   0  0  0  0  0  0  0  0  0  0  0  0
    1.2597   -1.1396    1.0167 C   0  0  0  0  0  0  0  0  0  0  0  0
    1.3447    0.0922    0.3379 C   0  0  0  0  0  0  0  0  0  0  0  0
    0.1876    1.0600    0.4727 C   0  0  0  0  0  0  0  0  0  0  0  0
   -0.9746    0.6854   -0.4074 C   0  0  0  0  0  0  0  0  0  0  0  0
   -2.2160    0.2886   -0.0581 C   0  0  0  0  0  0  0  0  0  0  0  0
   -2.6436    0.1438    1.3640 C   0  0  0  0  0  0  0  0  0  0  0  0
   -3.8978   -0.2603    1.6579 C   0  0  0  0  0  0  0  0  0  0  0  0
   -4.6851   -0.5080    0.5108 C   0  0  0  0  0  2  0  0  0  0  0  0
   -4.4348   -0.4222   -0.8771 C   0  0  0  0  0  0  0  0  0  0  0  0
   -3.1794   -0.0175   -1.1612 C   0  0  0  0  0  0  0  0  0  0  0  0
    1.9430    2.7073   -2.4485 H   0  0  0  0  0  0  0  0  0  0  0  0
    4.4683   -0.3314   -1.0036 H   0  0  0  0  0  0  0  0  0  0  0  0
    2.2147   -3.0039    1.5068 H   0  0  0  0  0  0  0  0  0  0  0  0
    0.3677   -1.3857    1.5915 H   0  0  0  0  0  0  0  0  0  0  0  0
    0.4995    2.0830    0.2360 H   0  0  0  0  0  0  0  0  0  0  0  0
   -0.0880    1.1117    1.5310 H   0  0  0  0  0  0  0  0  0  0  0  0
   -0.7418    0.7687   -1.4696 H   0  0  0  0  0  0  0  0  0  0  0  0
   -1.9538    0.3609    2.1688 H   0  0  0  0  0  0  0  0  0  0  0  0
   -4.2759   -0.3862    2.6631 H   0  0  0  0  0  0  0  0  0  0  0  0
   -5.1807   -0.6602   -1.6228 H   0  0  0  0  0  0  0  0  0  0  0  0
   -2.8570    0.0882   -2.1918 H   0  0  0  0  0  0  0  0  0  0  0  0
  1  2  2  0
  2  3  1  0
  2  4  1  0
  4  5  1  0
  5  6  2  0
  6  7  1  0
  6  8  1  0
  8  9  2  0
  9 10  1  0
 10 11  1  0
 11 12  1  0
 12 13  2  3
 13 14  1  0
 14 15  2  0
 15 16  1  0
 16 17  1  0
 17 18  2  0
 10  4  2  0
 18 13  1  0
  3 19  1  0
  5 20  1  0
  8 21  1  0
  9 22  1  0
 11 23  1  0
 11 24  1  0
 12 25  1  0
 14 26  1  0
 15 27  1  0
 17 28  1  0
 18 29  1  0
M  CHG  1  16   1
M  RAD  1  16   2
M  END
>  <Rank>  (10) 
10

>  <Score>  (10) 
0.7960

>  <Pharma_Score>  (10) 
1.0000

>  <QED>  (10) 
0.8620

>  <MW>  (10) 
303.16

>  <LogP>  (10) 
3.82

>  <PSA>  (10) 
37.3

>  <SA_Score>  (10) 
3.89

>  <HBD>  (10) 
1

>  <HBA>  (10) 
1

>  <Lip_Violations>  (10) 
0

>  <SMILES>  (10) 
O=C(O)c1cc(Br)ccc1CC=C1C=C[C+]C=C1

$$$$
Candidata_012
     RDKit          3D

 25 26  0  0  0  0  0  0  0  0999 V2000
    0.5665    2.5484    1.2931 O   0  0  0  0  0  0  0  0  0  0  0  0
    1.5061    1.9090    0.8633 C   0  0  0  0  0  0  0  0  0  0  0  0
    2.7119    2.4732    0.6715 O   0  0  0  0  0  0  0  0  0  0  0  0
    1.5049    0.4768    0.4757 C   0  0  0  0  0  0  0  0  0  0  0  0
    2.6497   -0.2821    0.7779 C   0  0  0  0  0  0  0  0  0  0  0  0
    2.6762   -1.6463    0.5047 C   0  0  0  0  0  0  0  0  0  0  0  0
    4.2175   -2.6583    0.9204 Br  0  0  0  0  0  0  0  0  0  0  0  0
    1.5705   -2.2724   -0.0573 C   0  0  0  0  0  0  0  0  0  0  0  0
    0.4323   -1.5232   -0.3631 C   0  0  0  0  0  0  0  0  0  0  0  0
    0.3807   -0.1322   -0.1251 C   0  0  0  0  0  0  0  0  0  0  0  0
   -0.8784    0.6480   -0.4985 C   0  0  0  0  0  0  0  0  0  0  0  0
   -1.4025    0.2793   -1.8972 C   0  0  0  0  0  0  0  0  0  0  0  0
   -2.6295   -0.1440   -1.9254 C   0  0  0  0  0  0  0  0  0  0  0  0
   -3.5918   -0.3526   -1.0828 C   0  0  0  0  0  0  0  0  0  0  0  0
   -3.2282   -0.0163    0.2888 C   0  0  0  0  0  0  0  0  0  0  0  0
   -1.9859    0.4486    0.5712 C   0  0  0  0  0  0  0  0  0  0  0  0
    2.5878    3.4062    0.9462 H   0  0  0  0  0  0  0  0  0  0  0  0
    3.5120    0.1927    1.2407 H   0  0  0  0  0  0  0  0  0  0  0  0
    1.5785   -3.3405   -0.2605 H   0  0  0  0  0  0  0  0  0  0  0  0
   -0.4263   -2.0383   -0.7934 H   0  0  0  0  0  0  0  0  0  0  0  0
   -0.6619    1.7196   -0.5601 H   0  0  0  0  0  0  0  0  0  0  0  0
   -0.8035    0.4237   -2.7863 H   0  0  0  0  0  0  0  0  0  0  0  0
   -4.5764   -0.7074   -1.3534 H   0  0  0  0  0  0  0  0  0  0  0  0
   -3.9785   -0.1338    1.0635 H   0  0  0  0  0  0  0  0  0  0  0  0
   -1.7315    0.7221    1.5921 H   0  0  0  0  0  0  0  0  0  0  0  0
  1  2  2  0
  2  3  1  0
  2  4  1  0
  4  5  1  0
  5  6  2  0
  6  7  1  0
  6  8  1  0
  8  9  2  0
  9 10  1  0
 10 11  1  0
 11 12  1  0
 12 13  2  0
 13 14  2  0
 14 15  1  0
 15 16  2  0
 10  4  2  0
 16 11  1  0
  3 17  1  0
  5 18  1  0
  8 19  1  0
  9 20  1  0
 11 21  1  0
 12 22  1  0
 14 23  1  0
 15 24  1  0
 16 25  1  0
M  END
>  <Rank>  (11) 
12

>  <Score>  (11) 
0.7840

>  <Pharma_Score>  (11) 
1.0000

>  <QED>  (11) 
0.8400

>  <MW>  (11) 
277.12

>  <LogP>  (11) 
3.51

>  <PSA>  (11) 
37.3

>  <SA_Score>  (11) 
3.99

>  <HBD>  (11) 
1

>  <HBA>  (11) 
1

>  <Lip_Violations>  (11) 
0

>  <SMILES>  (11) 
O=C(O)c1cc(Br)ccc1C1C=C=CC=C1

$$$$
Candidata_013
     RDKit          3D

 17 17  0  0  0  0  0  0  0  0999 V2000
   -2.6763   -1.5331    0.8066 O   0  0  0  0  0  0  0  0  0  0  0  0
   -2.5866   -0.5062    0.1647 C   0  0  0  0  0  0  0  0  0  0  0  0
   -3.4359    0.5188    0.2974 O   0  0  0  0  0  0  0  0  0  0  0  0
   -1.4934   -0.2182   -0.8560 C   0  0  0  0  0  0  0  0  0  0  0  0
   -1.8012   -0.1263   -2.0390 O   0  0  0  0  0  0  0  0  0  0  0  0
   -0.0922   -0.0502   -0.3914 C   0  0  0  0  0  0  0  0  0  0  0  0
    0.2722   -0.1884    0.9539 C   0  0  0  0  0  0  0  0  0  0  0  0
    1.6046   -0.0144    1.3387 C   0  0  0  0  0  0  0  0  0  0  0  0
    2.5750    0.2978    0.3873 C   0  0  0  0  0  0  0  0  0  0  0  0
    2.2189    0.4361   -0.9527 C   0  0  0  0  0  0  0  0  0  0  0  0
    0.8898    0.2625   -1.3423 C   0  0  0  0  0  0  0  0  0  0  0  0
   -4.1175    0.2027    0.9246 H   0  0  0  0  0  0  0  0  0  0  0  0
   -0.4544   -0.4384    1.7225 H   0  0  0  0  0  0  0  0  0  0  0  0
    1.8872   -0.1257    2.3832 H   0  0  0  0  0  0  0  0  0  0  0  0
    3.6108    0.4314    0.6905 H   0  0  0  0  0  0  0  0  0  0  0  0
    2.9751    0.6782   -1.6957 H   0  0  0  0  0  0  0  0  0  0  0  0
    0.6238    0.3733   -2.3924 H   0  0  0  0  0  0  0  0  0  0  0  0
  1  2  2  0
  2  3  1  0
  2  4  1  0
  4  5  2  0
  4  6  1  0
  6  7  2  0
  7  8  1  0
  8  9  2  0
  9 10  1  0
 10 11  2  0
 11  6  1  0
  3 12  1  0
  7 13  1  0
  8 14  1  0
  9 15  1  0
 10 16  1  0
 11 17  1  0
M  END
>  <Rank>  (12) 
13

>  <Score>  (12) 
0.7660

>  <Pharma_Score>  (12) 
1.0000

>  <QED>  (12) 
0.5040

>  <MW>  (12) 
150.13

>  <LogP>  (12) 
0.95

>  <PSA>  (12) 
54.4

>  <SA_Score>  (12) 
1.52

>  <HBD>  (12) 
1

>  <HBA>  (12) 
2

>  <Lip_Violations>  (12) 
0

>  <SMILES>  (12) 
O=C(O)C(=O)c1ccccc1

$$$$
Candidata_014
     RDKit          3D

 18 18  0  0  0  0  0  0  0  0999 V2000
   -2.3192   -0.9901   -1.6767 O   0  0  0  0  0  0  0  0  0  0  0  0
   -1.1079   -1.7701   -1.2774 S   0  0  0  0  0  0  0  0  0  0  0  0
   -1.5008   -2.4450    0.1231 O   0  0  0  0  0  0  0  0  0  0  0  0
    0.0600   -0.6112   -0.5054 C   0  0  0  0  0  0  0  0  0  0  0  0
    1.4216   -0.9209   -0.6800 C   0  0  0  0  0  0  0  0  0  0  0  0
    2.4121   -0.1085   -0.1339 C   0  0  0  0  0  0  0  0  0  0  0  0
    4.2329   -0.5481   -0.3863 Br  0  0  0  0  0  0  0  0  0  0  0  0
    2.0699    1.0225    0.5939 C   0  0  0  0  0  0  0  0  0  0  0  0
    0.7238    1.3382    0.7778 C   0  0  0  0  0  0  0  0  0  0  0  0
   -0.3031    0.5316    0.2389 C   0  0  0  0  0  0  0  0  0  0  0  0
   -1.7218    0.9582    0.4928 C   0  0  0  0  0  0  0  0  0  0  0  0
   -2.2222    2.3549   -0.7658 Br  0  0  0  0  0  0  0  0  0  0  0  0
   -2.4858   -2.4605    0.1563 H   0  0  0  0  0  0  0  0  0  0  0  0
    1.7090   -1.8040   -1.2468 H   0  0  0  0  0  0  0  0  0  0  0  0
    2.8361    1.6652    1.0197 H   0  0  0  0  0  0  0  0  0  0  0  0
    0.4727    2.2331    1.3468 H   0  0  0  0  0  0  0  0  0  0  0  0
   -2.4571    0.1560    0.4319 H   0  0  0  0  0  0  0  0  0  0  0  0
   -1.8203    1.3988    1.4910 H   0  0  0  0  0  0  0  0  0  0  0  0
  1  2  2  0
  2  3  1  0
  2  4  1  0
  4  5  1  0
  5  6  2  0
  6  7  1  0
  6  8  1  0
  8  9  2  0
  9 10  1  0
 10 11  1  0
 11 12  1  0
 10  4  2  0
  3 13  1  0
  5 14  1  0
  8 15  1  0
  9 16  1  0
 11 17  1  0
 11 18  1  0
M  END
>  <Rank>  (13) 
14

>  <Score>  (13) 
0.7520

>  <Pharma_Score>  (13) 
1.0000

>  <QED>  (13) 
0.6730

>  <MW>  (13) 
314.00

>  <LogP>  (13) 
2.92

>  <PSA>  (13) 
37.3

>  <SA_Score>  (13) 
3.33

>  <HBD>  (13) 
1

>  <HBA>  (13) 
1

>  <Lip_Violations>  (13) 
0

>  <SMILES>  (13) 
O=S(O)c1cc(Br)ccc1CBr

$$$$
Candidata_015
     RDKit          3D

 28 29  0  0  0  0  0  0  0  0999 V2000
    1.8342   -2.9610   -0.0155 O   0  0  0  0  0  0  0  0  0  0  0  0
    2.5251   -2.0048   -0.3090 C   0  0  0  0  0  0  0  0  0  0  0  0
    3.6531   -2.1629   -1.0256 O   0  0  0  0  0  0  0  0  0  0  0  0
    2.2664   -0.5757    0.0243 C   0  0  0  0  0  0  0  0  0  0  0  0
    3.3650    0.2992    0.1059 C   0  0  0  0  0  0  0  0  0  0  0  0
    3.1749    1.6305    0.4619 C   0  0  0  0  0  0  0  0  0  0  0  0
    4.6586    2.7962    0.5715 Br  0  0  0  0  0  0  0  0  0  0  0  0
    1.9017    2.1055    0.7486 C   0  0  0  0  0  0  0  0  0  0  0  0
    0.8049    1.2438    0.6696 C   0  0  0  0  0  0  0  0  0  0  0  0
    0.9571   -0.1054    0.2904 C   0  0  0  0  0  0  0  0  0  0  0  0
   -0.2435   -1.0379    0.2031 C   0  0  0  0  0  0  0  0  0  0  0  0
   -1.6172   -0.3817    0.1462 C   0  0  0  0  0  0  0  0  0  0  0  0
   -2.4116   -0.3490    1.3039 C   0  0  0  0  0  0  0  0  0  0  0  0
   -3.6695    0.2380    1.3821 C   0  0  0  0  0  0  0  0  0  0  0  0
   -4.4442    1.1627    0.0643 S   0  0  0  0  0  4  0  0  0  0  0  0
   -3.2831    0.8075   -1.2462 C   0  0  0  0  0  0  0  0  0  0  0  0
   -2.0633    0.1648   -1.0692 C   0  0  0  0  0  0  0  0  0  0  0  0
    3.6997   -3.1288   -1.1871 H   0  0  0  0  0  0  0  0  0  0  0  0
    4.3704   -0.0628   -0.0967 H   0  0  0  0  0  0  0  0  0  0  0  0
    1.7461    3.1426    1.0361 H   0  0  0  0  0  0  0  0  0  0  0  0
   -0.1763    1.6523    0.9070 H   0  0  0  0  0  0  0  0  0  0  0  0
   -0.2096   -1.7225    1.0602 H   0  0  0  0  0  0  0  0  0  0  0  0
   -0.1615   -1.6531   -0.7022 H   0  0  0  0  0  0  0  0  0  0  0  0
   -2.0317   -0.8277    2.2087 H   0  0  0  0  0  0  0  0  0  0  0  0
   -4.2206    0.1717    2.3173 H   0  0  0  0  0  0  0  0  0  0  0  0
   -5.4566    0.3267   -0.2657 H   0  0  0  0  0  0  0  0  0  0  0  0
   -3.5496    1.1601   -2.2398 H   0  0  0  0  0  0  0  0  0  0  0  0
   -1.4189    0.0717   -1.9457 H   0  0  0  0  0  0  0  0  0  0  0  0
  1  2  2  0
  2  3  1  0
  2  4  1  0
  4  5  1  0
  5  6  2  0
  6  7  1  0
  6  8  1  0
  8  9  2  0
  9 10  1  0
 10 11  1  0
 11 12  1  0
 12 13  2  0
 13 14  1  0
 14 15  2  0
 15 16  1  0
 16 17  2  0
 10  4  2  0
 17 12  1  0
  3 18  1  0
  5 19  1  0
  8 20  1  0
  9 21  1  0
 11 22  1  0
 11 23  1  0
 13 24  1  0
 14 25  1  0
 15 26  1  0
 16 27  1  0
 17 28  1  0
M  END
>  <Rank>  (14) 
15

>  <Score>  (14) 
0.7340

>  <Pharma_Score>  (14) 
1.0000

>  <QED>  (14) 
0.6630

>  <MW>  (14) 
311.20

>  <LogP>  (14) 
3.41

>  <PSA>  (14) 
37.3

>  <SA_Score>  (14) 
3.70

>  <HBD>  (14) 
2

>  <HBA>  (14) 
1

>  <Lip_Violations>  (14) 
0

>  <SMILES>  (14) 
O=C(O)c1cc(Br)ccc1CC1=CC=[SH]C=C1

$$$$
Candidata_016
     RDKit          3D

 27 28  0  0  0  0  0  0  0  0999 V2000
   -0.5005   -2.6801   -0.6932 O   0  0  0  0  0  0  0  0  0  0  0  0
   -1.4820   -2.2774   -0.1018 C   0  0  0  0  0  0  0  0  0  0  0  0
   -2.2290   -3.0995    0.6587 O   0  0  0  0  0  0  0  0  0  0  0  0
   -2.0221   -0.8995   -0.0922 C   0  0  0  0  0  0  0  0  0  0  0  0
   -3.4176   -0.7392   -0.1531 C   0  0  0  0  0  0  0  0  0  0  0  0
   -3.9700    0.5375   -0.2098 C   0  0  0  0  0  0  0  0  0  0  0  0
   -5.8463    0.7464   -0.2951 Br  0  0  0  0  0  0  0  0  0  0  0  0
   -3.1492    1.6608   -0.2095 C   0  0  0  0  0  0  0  0  0  0  0  0
   -1.7613    1.5077   -0.1457 C   0  0  0  0  0  0  0  0  0  0  0  0
   -1.1858    0.2299   -0.0862 C   0  0  0  0  0  0  0  0  0  0  0  0
    0.2750    0.0964    0.0450 C   0  0  0  0  0  0  0  0  0  0  0  0
    1.4152    1.4293   -0.3922 S   0  0  0  0  0  5  0  0  0  0  0  0
    2.2391    1.4449    1.1988 C   0  0  0  0  0  0  0  0  0  0  0  0
    3.4830    0.8816    1.4560 C   0  0  0  0  0  0  0  0  0  0  0  0
    4.2219    0.1584    0.5196 C   0  0  0  0  0  0  0  0  0  0  0  0
    3.7643   -0.0962   -0.7733 C   0  0  0  0  0  0  0  0  0  0  0  0
    2.5518    0.3614   -1.2741 C   0  0  0  0  0  0  0  0  0  0  0  0
   -1.7732   -3.9652    0.5895 H   0  0  0  0  0  0  0  0  0  0  0  0
   -4.0662   -1.6124   -0.1678 H   0  0  0  0  0  0  0  0  0  0  0  0
   -3.5749    2.6606   -0.2533 H   0  0  0  0  0  0  0  0  0  0  0  0
   -1.1471    2.4045   -0.1279 H   0  0  0  0  0  0  0  0  0  0  0  0
    0.7024   -0.8500    0.4144 H   0  0  0  0  0  0  0  0  0  0  0  0
    1.7293    1.9717    2.0019 H   0  0  0  0  0  0  0  0  0  0  0  0
    3.9015    1.0005    2.4558 H   0  0  0  0  0  0  0  0  0  0  0  0
    5.1872   -0.2485    0.8192 H   0  0  0  0  0  0  0  0  0  0  0  0
    4.3884   -0.7065   -1.4268 H   0  0  0  0  0  0  0  0  0  0  0  0
    2.2661    0.0826   -2.2859 H   0  0  0  0  0  0  0  0  0  0  0  0
  1  2  2  0
  2  3  1  0
  2  4  1  0
  4  5  1  0
  5  6  2  0
  6  7  1  0
  6  8  1  0
  8  9  2  0
  9 10  1  0
 10 11  1  0
 11 12  2  0
 12 13  2  0
 13 14  1  0
 14 15  2  0
 15 16  1  0
 16 17  2  0
 10  4  2  0
 17 12  1  0
  3 18  1  0
  5 19  1  0
  8 20  1  0
  9 21  1  0
 11 22  1  0
 13 23  1  0
 14 24  1  0
 15 25  1  0
 16 26  1  0
 17 27  1  0
M  CHG  1  12  -1
M  END
>  <Rank>  (15) 
16

>  <Score>  (15) 
0.7280

>  <Pharma_Score>  (15) 
1.0000

>  <QED>  (15) 
0.6740

>  <MW>  (15) 
310.19

>  <LogP>  (15) 
2.80

>  <PSA>  (15) 
37.3

>  <SA_Score>  (15) 
3.95

>  <HBD>  (15) 
1

>  <HBA>  (15) 
2

>  <Lip_Violations>  (15) 
0

>  <SMILES>  (15) 
O=C(O)c1cc(Br)ccc1C=[S-]1=CC=CC=C1

$$$$
Candidata_017
     RDKit          3D

 30 30  0  0  0  0  0  0  0  0999 V2000
    5.5369   -0.0339    3.2742 C   0  0  0  0  0  0  0  0  0  0  0  0
    4.6146   -0.1819    2.3162 C   0  0  0  0  0  0  0  0  0  0  0  0
    3.8363    0.9194    1.7964 C   0  0  0  0  0  0  0  0  0  0  0  0
    2.9111    0.7604    0.8426 C   0  0  0  0  0  0  0  0  0  0  0  0
    1.9448    2.1967    0.2214 P   0  0  0  0  0  0  0  0  0  0  0  0
    0.5948    1.8972   -0.9812 C   0  0  0  0  0  0  0  0  0  0  0  0
   -0.3695    1.6346   -1.8135 C   0  0  0  0  0  0  0  0  0  0  0  0
   -0.7528    0.2571   -2.2690 C   0  0  0  0  0  0  0  0  0  0  0  0
   -2.0321   -0.2275   -1.6199 C   0  0  0  0  0  0  0  0  0  0  0  0
   -3.2401   -0.0842   -2.3295 C   0  0  0  0  0  0  0  0  0  0  0  0
   -4.4579   -0.4632   -1.7608 C   0  0  0  0  0  0  0  0  0  0  0  0
   -4.4859   -0.9833   -0.4708 C   0  0  0  0  0  0  0  0  0  0  0  0
   -6.1354   -1.4935    0.2985 Br  0  0  0  0  0  0  0  0  0  0  0  0
   -3.3086   -1.1314    0.2564 C   0  0  0  0  0  0  0  0  0  0  0  0
   -2.0805   -0.7556   -0.3122 C   0  0  0  0  0  0  0  0  0  0  0  0
   -0.8527   -0.9562    0.4945 C   0  0  0  0  0  0  0  0  0  0  0  0
    0.2198   -1.3738    0.1045 O   0  0  0  0  0  0  0  0  0  0  0  0
   -1.0495   -0.5910    1.7742 O   0  0  0  0  0  0  0  0  0  0  0  0
    6.1001   -0.8898    3.6335 H   0  0  0  0  0  0  0  0  0  0  0  0
    5.7577    0.9300    3.7220 H   0  0  0  0  0  0  0  0  0  0  0  0
    4.4370   -1.1729    1.9021 H   0  0  0  0  0  0  0  0  0  0  0  0
    4.0324    1.9047    2.2155 H   0  0  0  0  0  0  0  0  0  0  0  0
    2.6855   -0.2044    0.3993 H   0  0  0  0  0  0  0  0  0  0  0  0
   -0.9512    2.4652   -2.2016 H   0  0  0  0  0  0  0  0  0  0  0  0
   -0.8869    0.2862   -3.3586 H   0  0  0  0  0  0  0  0  0  0  0  0
    0.0586   -0.4618   -2.1164 H   0  0  0  0  0  0  0  0  0  0  0  0
   -3.2406    0.3331   -3.3354 H   0  0  0  0  0  0  0  0  0  0  0  0
   -5.3762   -0.3431   -2.3306 H   0  0  0  0  0  0  0  0  0  0  0  0
   -3.3387   -1.5409    1.2636 H   0  0  0  0  0  0  0  0  0  0  0  0
   -0.1712   -0.6963    2.1962 H   0  0  0  0  0  0  0  0  0  0  0  0
  1  2  2  0
  2  3  1  0
  3  4  2  3
  4  5  1  0
  5  6  2  0
  6  7  2  0
  7  8  1  0
  8  9  1  0
  9 10  1  0
 10 11  2  0
 11 12  1  0
 12 13  1  0
 12 14  2  0
 14 15  1  0
 15 16  1  0
 16 17  2  0
 16 18  1  0
 15  9  2  0
  1 19  1  0
  1 20  1  0
  2 21  1  0
  3 22  1  0
  4 23  1  0
  7 24  1  0
  8 25  1  0
  8 26  1  0
 10 27  1  0
 11 28  1  0
 14 29  1  0
 18 30  1  0
M  END
>  <Rank>  (16) 
17

>  <Score>  (16) 
0.7240

>  <Pharma_Score>  (16) 
1.0000

>  <QED>  (16) 
0.6480

>  <MW>  (16) 
323.13

>  <LogP>  (16) 
4.29

>  <PSA>  (16) 
37.3

>  <SA_Score>  (16) 
3.83

>  <HBD>  (16) 
1

>  <HBA>  (16) 
1

>  <Lip_Violations>  (16) 
0

>  <SMILES>  (16) 
C=CC=CP=C=CCc1ccc(Br)cc1C(=O)O

$$$$
Candidata_018
     RDKit          3D

 28 28  0  0  0  0  0  0  0  0999 V2000
    2.1533   -2.1089   -0.3209 O   0  0  0  0  0  0  0  0  0  0  0  0
    2.1991   -1.1853   -1.1153 C   0  0  0  0  0  0  0  0  0  0  0  0
    3.3194   -0.4734   -1.2944 O   0  0  0  0  0  0  0  0  0  0  0  0
    1.0925   -0.8076   -2.0049 C   0  0  0  0  0  0  0  0  0  0  0  0
    0.8825    0.3664   -2.6227 C   0  0  0  0  0  0  0  0  0  0  0  0
    1.6664    1.5837   -2.5263 C   0  0  0  0  0  0  0  0  0  0  0  0
    2.4760    2.1270   -4.1330 Br  0  0  0  0  0  0  0  0  0  0  0  0
    1.7940    2.3311   -1.4151 C   0  0  0  0  0  0  0  0  0  0  0  0
    1.1634    2.0132   -0.1801 C   0  0  0  0  0  0  0  0  0  0  0  0
    0.6127    1.6935    0.8379 C   0  0  0  0  0  0  0  0  0  0  0  0
   -0.0824    1.2397    2.0496 C   0  0  0  0  0  0  0  0  0  0  0  0
   -1.0975    0.1664    1.7366 C   0  0  0  0  0  0  0  0  0  0  0  0
   -2.4453    0.4948    1.5313 C   0  0  0  0  0  0  0  0  0  0  0  0
   -3.3755   -0.4973    1.2156 C   0  0  0  0  0  0  0  0  0  0  0  0
   -2.9677   -1.8246    1.0939 C   0  0  0  0  0  0  0  0  0  0  0  0
   -1.6293   -2.1613    1.2851 C   0  0  0  0  0  0  0  0  0  0  0  0
   -0.6982   -1.1717    1.6035 C   0  0  0  0  0  0  0  0  0  0  0  0
    3.9499   -0.8580   -0.6529 H   0  0  0  0  0  0  0  0  0  0  0  0
    0.3661   -1.6045   -2.1343 H   0  0  0  0  0  0  0  0  0  0  0  0
    0.0128    0.4481   -3.2730 H   0  0  0  0  0  0  0  0  0  0  0  0
    2.3928    3.2365   -1.4367 H   0  0  0  0  0  0  0  0  0  0  0  0
   -0.5776    2.0872    2.5388 H   0  0  0  0  0  0  0  0  0  0  0  0
    0.6404    0.8526    2.7782 H   0  0  0  0  0  0  0  0  0  0  0  0
   -2.7776    1.5274    1.6117 H   0  0  0  0  0  0  0  0  0  0  0  0
   -4.4184   -0.2337    1.0608 H   0  0  0  0  0  0  0  0  0  0  0  0
   -3.6919   -2.5960    0.8464 H   0  0  0  0  0  0  0  0  0  0  0  0
   -1.3056   -3.1940    1.1829 H   0  0  0  0  0  0  0  0  0  0  0  0
    0.3455   -1.4512    1.7372 H   0  0  0  0  0  0  0  0  0  0  0  0
  1  2  2  0
  2  3  1  0
  2  4  1  0
  4  5  2  3
  5  6  1  0
  6  7  1  0
  6  8  2  3
  8  9  1  0
  9 10  3  0
 10 11  1  0
 11 12  1  0
 12 13  2  0
 13 14  1  0
 14 15  2  0
 15 16  1  0
 16 17  2  0
 17 12  1  0
  3 18  1  0
  4 19  1  0
  5 20  1  0
  8 21  1  0
 11 22  1  0
 11 23  1  0
 13 24  1  0
 14 25  1  0
 15 26  1  0
 16 27  1  0
 17 28  1  0
M  END
>  <Rank>  (17) 
18

>  <Score>  (17) 
0.7170

>  <Pharma_Score>  (17) 
1.0000

>  <QED>  (17) 
0.5270

>  <MW>  (17) 
291.14

>  <LogP>  (17) 
3.15

>  <PSA>  (17) 
37.3

>  <SA_Score>  (17) 
2.93

>  <HBD>  (17) 
1

>  <HBA>  (17) 
1

>  <Lip_Violations>  (17) 
0

>  <SMILES>  (17) 
O=C(O)C=CC(Br)=CC#CCc1ccccc1

$$$$
Candidata_019
     RDKit          3D

 29 29  0  0  0  0  0  0  0  0999 V2000
   -3.6770    0.5728   -2.3808 O   0  0  0  0  0  0  0  0  0  0  0  0
   -3.0230    1.1204   -1.5140 C   0  0  0  0  0  0  0  0  0  0  0  0
   -2.5943    2.3861   -1.6460 O   0  0  0  0  0  0  0  0  0  0  0  0
   -2.6951    0.5494   -0.1867 C   0  0  0  0  0  0  0  0  0  0  0  0
   -3.7169   -0.2072    0.4101 C   0  0  0  0  0  0  0  0  0  0  0  0
   -3.5276   -0.7552    1.6734 C   0  0  0  0  0  0  0  0  0  0  0  0
   -4.9091   -1.7606    2.4802 Br  0  0  0  0  0  0  0  0  0  0  0  0
   -2.3301   -0.5582    2.3507 C   0  0  0  0  0  0  0  0  0  0  0  0
   -1.3032    0.1778    1.7518 C   0  0  0  0  0  0  0  0  0  0  0  0
   -1.4498    0.7238    0.4615 C   0  0  0  0  0  0  0  0  0  0  0  0
   -0.3168    1.5005   -0.1953 C   0  0  0  0  0  0  0  0  0  0  0  0
    1.0897    1.1259    0.2346 C   0  0  0  0  0  0  0  0  0  0  0  0
    1.8670    2.3303    1.4496 Br  0  0  0  0  0  0  0  0  0  0  0  0
    1.7155    0.0461   -0.2725 C   0  0  0  0  0  0  0  0  0  0  0  0
    3.0574   -0.4073    0.0268 C   0  0  0  0  0  0  0  0  0  0  0  0
    3.5893   -1.5096   -0.5253 C   0  0  0  0  0  0  0  0  0  0  0  0
    4.9670   -2.0022   -0.2299 C   0  0  0  0  0  0  0  0  0  0  0  0
    5.9888   -1.9711   -1.8829 Br  0  0  0  0  0  0  0  0  0  0  0  0
   -2.9360    2.6645   -2.5222 H   0  0  0  0  0  0  0  0  0  0  0  0
   -4.6603   -0.3526   -0.1130 H   0  0  0  0  0  0  0  0  0  0  0  0
   -2.1796   -0.9743    3.3441 H   0  0  0  0  0  0  0  0  0  0  0  0
   -0.3811    0.3073    2.3151 H   0  0  0  0  0  0  0  0  0  0  0  0
   -0.4982    2.5713   -0.0387 H   0  0  0  0  0  0  0  0  0  0  0  0
   -0.3577    1.3381   -1.2807 H   0  0  0  0  0  0  0  0  0  0  0  0
    1.1651   -0.5680   -0.9860 H   0  0  0  0  0  0  0  0  0  0  0  0
    3.6542    0.1769    0.7234 H   0  0  0  0  0  0  0  0  0  0  0  0
    3.0048   -2.1093   -1.2204 H   0  0  0  0  0  0  0  0  0  0  0  0
    5.5063   -1.3789    0.4881 H   0  0  0  0  0  0  0  0  0  0  0  0
    4.9506   -3.0368    0.1213 H   0  0  0  0  0  0  0  0  0  0  0  0
  1  2  2  0
  2  3  1  0
  2  4  1  0
  4  5  1  0
  5  6  2  0
  6  7  1  0
  6  8  1  0
  8  9  2  0
  9 10  1  0
 10 11  1  0
 11 12  1  0
 12 13  1  0
 12 14  2  3
 14 15  1  0
 15 16  2  3
 16 17  1  0
 17 18  1  0
 10  4  2  0
  3 19  1  0
  5 20  1  0
  8 21  1  0
  9 22  1  0
 11 23  1  0
 11 24  1  0
 14 25  1  0
 15 26  1  0
 16 27  1  0
 17 28  1  0
 17 29  1  0
M  END
>  <Rank>  (18) 
19

>  <Score>  (18) 
0.7070

>  <Pharma_Score>  (18) 
1.0000

>  <QED>  (18) 
0.5230

>  <MW>  (18) 
438.94

>  <LogP>  (18) 
4.92

>  <PSA>  (18) 
37.3

>  <SA_Score>  (18) 
3.16

>  <HBD>  (18) 
1

>  <HBA>  (18) 
1

>  <Lip_Violations>  (18) 
0

>  <SMILES>  (18) 
O=C(O)c1cc(Br)ccc1CC(Br)=CC=CCBr

$$$$
Candidata_020
     RDKit          3D

 22 21  0  0  0  0  0  0  0  0999 V2000
   -3.9628    0.7044   -1.3307 O   0  0  0  0  0  0  0  0  0  0  0  0
   -3.1971    0.2651   -0.4863 C   0  0  0  0  0  0  0  0  0  0  0  0
   -2.7756    1.0467    0.5234 O   0  0  0  0  0  0  0  0  0  0  0  0
   -2.7304   -1.1641   -0.3952 C   0  0  0  0  0  0  0  0  0  0  0  0
   -1.4465   -1.3450    0.4079 C   0  0  0  0  0  0  0  0  0  0  0  0
   -0.2618   -0.6356   -0.2307 C   0  0  0  0  0  0  0  0  0  0  0  0
   -0.3288   -0.1863   -1.3690 O   0  0  0  0  0  0  0  0  0  0  0  0
    0.8340   -0.6338    0.6173 N   0  0  0  0  0  0  0  0  0  0  0  0
    2.0506   -0.0166    0.4509 C   0  0  0  0  0  0  0  0  0  0  0  0
    2.4195    0.8222   -0.5250 C   0  0  0  0  0  0  0  0  0  0  0  0
    3.8064    1.4314   -0.6042 C   0  0  0  0  0  0  0  0  0  0  0  0
    3.6965    2.6421   -0.0874 O   0  0  0  0  0  0  0  0  0  0  0  0
   -3.0431    1.9509    0.2554 H   0  0  0  0  0  0  0  0  0  0  0  0
   -2.5854   -1.5335   -1.4169 H   0  0  0  0  0  0  0  0  0  0  0  0
   -3.5349   -1.7441    0.0696 H   0  0  0  0  0  0  0  0  0  0  0  0
   -1.2049   -2.4131    0.4621 H   0  0  0  0  0  0  0  0  0  0  0  0
   -1.5777   -0.9788    1.4329 H   0  0  0  0  0  0  0  0  0  0  0  0
    0.7409   -1.1344    1.4907 H   0  0  0  0  0  0  0  0  0  0  0  0
    2.7687   -0.2180    1.2427 H   0  0  0  0  0  0  0  0  0  0  0  0
    1.7358    1.1008   -1.3209 H   0  0  0  0  0  0  0  0  0  0  0  0
    4.4974    0.7145   -0.1316 H   0  0  0  0  0  0  0  0  0  0  0  0
    4.0991    1.3252   -1.6610 H   0  0  0  0  0  0  0  0  0  0  0  0
  1  2  2  0
  2  3  1  0
  2  4  1  0
  4  5  1  0
  5  6  1  0
  6  7  2  0
  6  8  1  0
  8  9  1  0
  9 10  2  3
 10 11  1  0
 11 12  1  0
  3 13  1  0
  4 14  1  0
  4 15  1  0
  5 16  1  0
  5 17  1  0
  8 18  1  0
  9 19  1  0
 10 20  1  0
 11 21  1  0
 11 22  1  0
M  CHG  1  12  -1
M  END
>  <Rank>  (19) 
20

>  <Score>  (19) 
0.7050

>  <Pharma_Score>  (19) 
1.0000

>  <QED>  (19) 
0.5470

>  <MW>  (19) 
172.16

>  <LogP>  (19) 
-1.16

>  <PSA>  (19) 
89.5

>  <SA_Score>  (19) 
3.42

>  <HBD>  (19) 
2

>  <HBA>  (19) 
3

>  <Lip_Violations>  (19) 
0

>  <SMILES>  (19) 
O=C(O)CCC(=O)NC=CC[O-]

$$$$
Candidata_021
     RDKit          3D

 15 14  0  0  0  0  0  0  0  0999 V2000
    3.9639    1.0906   -0.1593 O   0  0  0  0  0  0  0  0  0  0  0  0
    3.4938   -0.0117   -0.3931 C   0  0  0  0  0  0  0  0  0  0  0  0
    2.0553   -0.3747   -0.3266 C   0  0  0  0  0  0  0  0  0  0  0  0
    1.0112    0.4120   -0.0060 C   0  0  0  0  0  0  0  0  0  0  0  0
    1.1786    2.2283    0.4465 Br  0  0  0  0  0  0  0  0  0  0  0  0
   -0.3303   -0.1750   -0.0086 C   0  0  0  0  0  0  0  0  0  0  0  0
   -1.4941    0.4314    0.2787 C   0  0  0  0  0  0  0  0  0  0  0  0
   -2.7425   -0.3403    0.2179 C   0  0  0  0  0  0  0  0  0  0  0  0
   -2.8688   -1.5141   -0.0726 O   0  0  0  0  0  0  0  0  0  0  0  0
   -3.7860    0.4396    0.5367 O   0  0  0  0  0  0  0  0  0  0  0  0
    4.1469   -0.8521   -0.6842 H   0  0  0  0  0  0  0  0  0  0  0  0
    1.8917   -1.4188   -0.5793 H   0  0  0  0  0  0  0  0  0  0  0  0
   -0.3738   -1.2322   -0.2780 H   0  0  0  0  0  0  0  0  0  0  0  0
   -1.5846    1.4726    0.5590 H   0  0  0  0  0  0  0  0  0  0  0  0
   -4.5615   -0.1554    0.4689 H   0  0  0  0  0  0  0  0  0  0  0  0
  1  2  2  0
  2  3  1  0
  3  4  2  3
  4  5  1  0
  4  6  1  0
  6  7  2  3
  7  8  1  0
  8  9  2  0
  8 10  1  0
  2 11  1  0
  3 12  1  0
  6 13  1  0
  7 14  1  0
 10 15  1  0
M  END
>  <Rank>  (20) 
21

>  <Score>  (20) 
0.6620

>  <Pharma_Score>  (20) 
1.0000

>  <QED>  (20) 
0.4260

>  <MW>  (20) 
205.01

>  <LogP>  (20) 
1.10

>  <PSA>  (20) 
54.4

>  <SA_Score>  (20) 
3.42

>  <HBD>  (20) 
1

>  <HBA>  (20) 
2

>  <Lip_Violations>  (20) 
0

>  <SMILES>  (20) 
O=CC=C(Br)C=CC(=O)O

$$$$
Candidata_022
     RDKit          3D

 12 11  0  0  0  0  0  0  0  0999 V2000
    2.5077   -0.7710    1.2737 O   0  0  0  0  0  0  0  0  0  0  0  0
    1.6889   -0.0707    0.6986 C   0  0  0  0  0  0  0  0  0  0  0  0
    1.9843    1.1985    0.3720 O   0  0  0  0  0  0  0  0  0  0  0  0
    0.3558   -0.5175    0.2880 C   0  0  0  0  0  0  0  0  0  0  0  0
   -0.5689    0.2653   -0.2917 C   0  0  0  0  0  0  0  0  0  0  0  0
   -1.9377   -0.2251   -0.7061 C   0  0  0  0  0  0  0  0  0  0  0  0
   -2.7765    0.3673    0.1228 O   0  0  0  0  0  0  0  0  0  0  0  0
    2.8797    1.3192    0.7382 H   0  0  0  0  0  0  0  0  0  0  0  0
    0.1267   -1.5528    0.5075 H   0  0  0  0  0  0  0  0  0  0  0  0
   -0.3569    1.3127   -0.4941 H   0  0  0  0  0  0  0  0  0  0  0  0
   -2.0030   -0.0000   -1.7825 H   0  0  0  0  0  0  0  0  0  0  0  0
   -1.9003   -1.3259   -0.7264 H   0  0  0  0  0  0  0  0  0  0  0  0
  1  2  2  0
  2  3  1  0
  2  4  1  0
  4  5  2  3
  5  6  1  0
  6  7  1  0
  3  8  1  0
  4  9  1  0
  5 10  1  0
  6 11  1  0
  6 12  1  0
M  CHG  1   7  -1
M  END
>  <Rank>  (21) 
22

>  <Score>  (21) 
0.6590

>  <Pharma_Score>  (21) 
1.0000

>  <QED>  (21) 
0.4530

>  <MW>  (21) 
101.08

>  <LogP>  (21) 
-1.01

>  <PSA>  (21) 
60.4

>  <SA_Score>  (21) 
3.73

>  <HBD>  (21) 
1

>  <HBA>  (21) 
2

>  <Lip_Violations>  (21) 
0

>  <SMILES>  (21) 
O=C(O)C=CC[O-]

$$$$
Candidata_023
     RDKit          3D

 35 35  0  0  0  0  0  0  0  0999 V2000
    5.0901    0.2452   -1.6504 O   0  0  0  0  0  0  0  0  0  0  0  0
    5.9052    0.6174   -0.8315 C   0  0  0  0  0  0  0  0  0  0  0  0
    6.5329    1.8005   -0.9466 O   0  0  0  0  0  0  0  0  0  0  0  0
    6.3927   -0.0771    0.3707 C   0  0  0  0  0  0  0  0  0  0  0  0
    5.8472   -1.1580    0.9513 C   0  0  0  0  0  0  0  0  0  0  0  0
    4.6364   -1.8635    0.6087 C   0  0  0  0  0  0  0  0  0  0  0  0
    4.5046   -3.6746    1.0081 Br  0  0  0  0  0  0  0  0  0  0  0  0
    3.5055   -1.2826    0.3384 C   0  0  0  0  0  0  0  0  0  0  0  0
    2.3800   -0.6925    0.0496 C   0  0  0  0  0  0  0  0  0  0  0  0
    1.3420   -0.3667    1.0145 C   0  0  0  0  0  0  0  0  0  0  0  0
    1.7148   -0.6798    2.8473 Br  0  0  0  0  0  0  0  0  0  0  0  0
    0.1374    0.1574    0.7035 C   0  0  0  0  0  0  0  0  0  0  0  0
   -0.3837    0.4741   -0.6120 C   0  0  0  0  0  0  0  0  0  0  0  0
   -1.5771    1.0291   -0.8835 C   0  0  0  0  0  0  0  0  0  0  0  0
   -2.6502    1.4823    0.0683 C   0  0  0  0  0  0  0  0  0  0  0  0
   -3.9194    0.6770   -0.0795 C   0  0  0  0  0  0  0  0  0  0  0  0
   -5.0066    1.1807   -0.8074 C   0  0  0  0  0  0  0  0  0  0  0  0
   -6.1730    0.4269   -0.9495 C   0  0  0  0  0  0  0  0  0  0  0  0
   -6.2628   -0.8376   -0.3706 C   0  0  0  0  0  0  0  0  0  0  0  0
   -5.1859   -1.3514    0.3493 C   0  0  0  0  0  0  0  0  0  0  0  0
   -4.0190   -0.5995    0.4932 C   0  0  0  0  0  0  0  0  0  0  0  0
    6.1559    2.1845   -1.7655 H   0  0  0  0  0  0  0  0  0  0  0  0
    7.3051    0.3363    0.7905 H   0  0  0  0  0  0  0  0  0  0  0  0
    6.3815   -1.5759    1.8042 H   0  0  0  0  0  0  0  0  0  0  0  0
    2.2291   -0.4255   -0.9899 H   0  0  0  0  0  0  0  0  0  0  0  0
   -0.5393    0.3589    1.5312 H   0  0  0  0  0  0  0  0  0  0  0  0
    0.2373    0.2265   -1.4700 H   0  0  0  0  0  0  0  0  0  0  0  0
   -1.8191    1.1880   -1.9349 H   0  0  0  0  0  0  0  0  0  0  0  0
   -2.8601    2.5411   -0.1310 H   0  0  0  0  0  0  0  0  0  0  0  0
   -2.3315    1.4486    1.1150 H   0  0  0  0  0  0  0  0  0  0  0  0
   -4.9517    2.1638   -1.2691 H   0  0  0  0  0  0  0  0  0  0  0  0
   -7.0117    0.8260   -1.5140 H   0  0  0  0  0  0  0  0  0  0  0  0
   -7.1707   -1.4242   -0.4830 H   0  0  0  0  0  0  0  0  0  0  0  0
   -5.2528   -2.3396    0.7968 H   0  0  0  0  0  0  0  0  0  0  0  0
   -3.1832   -1.0161    1.0512 H   0  0  0  0  0  0  0  0  0  0  0  0
  1  2  2  0
  2  3  1  0
  2  4  1  0
  4  5  2  3
  5  6  1  0
  6  7  1  0
  6  8  2  0
  8  9  2  0
  9 10  1  0
 10 11  1  0
 10 12  2  3
 12 13  1  0
 13 14  2  3
 14 15  1  0
 15 16  1  0
 16 17  2  0
 17 18  1  0
 18 19  2  0
 19 20  1  0
 20 21  2  0
 21 16  1  0
  3 22  1  0
  4 23  1  0
  5 24  1  0
  9 25  1  0
 12 26  1  0
 13 27  1  0
 14 28  1  0
 15 29  1  0
 15 30  1  0
 17 31  1  0
 18 32  1  0
 19 33  1  0
 20 34  1  0
 21 35  1  0
M  END
>  <Rank>  (22) 
23

>  <Score>  (22) 
0.6510

>  <Pharma_Score>  (22) 
1.0000

>  <QED>  (22) 
0.4010

>  <MW>  (22) 
410.11

>  <LogP>  (22) 
5.14

>  <PSA>  (22) 
37.3

>  <SA_Score>  (22) 
3.48

>  <HBD>  (22) 
1

>  <HBA>  (22) 
1

>  <Lip_Violations>  (22) 
1

>  <SMILES>  (22) 
O=C(O)C=CC(Br)=C=CC(Br)=CC=CCc1ccccc1

$$$$
Candidata_024
     RDKit          3D

 30 30  0  0  0  0  0  0  0  0999 V2000
    5.7191   -0.0730   -0.3152 O   0  0  0  0  0  0  0  0  0  0  0  0
    4.5845   -0.4214   -0.0497 C   0  0  0  0  0  0  0  0  0  0  0  0
    4.3303   -1.5399    0.6454 O   0  0  0  0  0  0  0  0  0  0  0  0
    3.3605    0.3509   -0.3450 C   0  0  0  0  0  0  0  0  0  0  0  0
    3.4664    1.7450   -0.2123 C   0  0  0  0  0  0  0  0  0  0  0  0
    2.3573    2.5518   -0.4521 C   0  0  0  0  0  0  0  0  0  0  0  0
    2.5001    4.4262   -0.2604 Br  0  0  0  0  0  0  0  0  0  0  0  0
    1.1451    1.9875   -0.8385 C   0  0  0  0  0  0  0  0  0  0  0  0
    1.0393    0.6019   -0.9898 C   0  0  0  0  0  0  0  0  0  0  0  0
    2.1412   -0.2298   -0.7348 C   0  0  0  0  0  0  0  0  0  0  0  0
    2.0479   -1.6761   -0.9886 C   0  0  0  0  0  0  0  0  0  0  0  0
    0.7277   -2.6768   -0.5828 P   0  0  0  0  0  3  0  0  0  0  0  0
   -0.7689   -2.0515    0.2595 C   0  0  0  0  0  0  0  0  0  0  0  0
   -1.7465   -1.6241    0.8084 C   0  0  0  0  0  0  0  0  0  0  0  0
   -2.9317   -1.0880    1.4795 C   0  0  0  0  0  0  0  0  0  0  0  0
   -4.1326   -1.3808    0.7647 O   0  0  0  0  0  0  0  0  0  0  0  0
   -4.2808   -0.7309   -0.5016 C   0  0  0  0  0  0  0  0  0  0  0  0
   -4.6294    0.7458   -0.3837 C   0  0  0  0  0  0  0  0  0  0  0  0
   -3.0431    1.8643   -0.6141 Br  0  0  0  0  0  0  0  0  0  0  0  0
    5.2117   -1.9286    0.8290 H   0  0  0  0  0  0  0  0  0  0  0  0
    4.4142    2.1913    0.0839 H   0  0  0  0  0  0  0  0  0  0  0  0
    0.2799    2.6153   -1.0400 H   0  0  0  0  0  0  0  0  0  0  0  0
    0.0936    0.1925   -1.3373 H   0  0  0  0  0  0  0  0  0  0  0  0
    2.9094   -2.1753   -1.4617 H   0  0  0  0  0  0  0  0  0  0  0  0
   -3.0307   -1.5643    2.4610 H   0  0  0  0  0  0  0  0  0  0  0  0
   -2.8491   -0.0147    1.6677 H   0  0  0  0  0  0  0  0  0  0  0  0
   -3.4190   -0.9273   -1.1485 H   0  0  0  0  0  0  0  0  0  0  0  0
   -5.1352   -1.2326   -0.9703 H   0  0  0  0  0  0  0  0  0  0  0  0
   -5.0654    1.0068    0.5837 H   0  0  0  0  0  0  0  0  0  0  0  0
   -5.2957    1.0557   -1.1934 H   0  0  0  0  0  0  0  0  0  0  0  0
  1  2  2  0
  2  3  1  0
  2  4  1  0
  4  5  1  0
  5  6  2  0
  6  7  1  0
  6  8  1  0
  8  9  2  0
  9 10  1  0
 10 11  1  0
 11 12  2  3
 12 13  1  0
 13 14  3  0
 14 15  1  0
 15 16  1  0
 16 17  1  0
 17 18  1  0
 18 19  1  0
 10  4  2  0
  3 20  1  0
  5 21  1  0
  8 22  1  0
  9 23  1  0
 11 24  1  0
 15 25  1  0
 15 26  1  0
 17 27  1  0
 17 28  1  0
 18 29  1  0
 18 30  1  0
M  CHG  1  12  -1
M  RAD  1  12   2
M  END
>  <Rank>  (23) 
24

>  <Score>  (23) 
0.6220

>  <Pharma_Score>  (23) 
1.0000

>  <QED>  (23) 
0.3520

>  <MW>  (23) 
406.01

>  <LogP>  (23) 
3.62

>  <PSA>  (23) 
46.5

>  <SA_Score>  (23) 
3.78

>  <HBD>  (23) 
1

>  <HBA>  (23) 
2

>  <Lip_Violations>  (23) 
0

>  <SMILES>  (23) 
O=C(O)c1cc(Br)ccc1C=[P-]C#CCOCCBr

$$$$
Candidata_025
     RDKit          3D

 17 16  0  0  0  0  0  0  0  0999 V2000
    4.4313    0.0827   -0.4321 O   0  0  0  0  0  0  0  0  0  0  0  0
    3.2596    0.3569   -0.2348 C   0  0  0  0  0  0  0  0  0  0  0  0
    2.8358    1.6264   -0.1816 O   0  0  0  0  0  0  0  0  0  0  0  0
    2.2014   -0.6415   -0.0381 C   0  0  0  0  0  0  0  0  0  0  0  0
    0.9143   -0.3302    0.1818 C   0  0  0  0  0  0  0  0  0  0  0  0
   -0.1766   -1.2575    0.3833 C   0  0  0  0  0  0  0  0  0  0  0  0
    0.0277   -3.1014    0.3769 Br  0  0  0  0  0  0  0  0  0  0  0  0
   -1.3897   -0.8380    0.5843 C   0  0  0  0  0  0  0  0  0  0  0  0
   -2.5867   -0.3585    0.7822 C   0  0  0  0  0  0  0  0  0  0  0  0
   -3.1766    0.8334    0.0624 C   0  0  0  0  0  0  0  0  0  0  0  0
   -3.3767    1.7435    0.9991 O   0  0  0  0  0  0  0  0  0  0  0  0
    3.6387    2.1639   -0.3265 H   0  0  0  0  0  0  0  0  0  0  0  0
    2.5509   -1.6653   -0.0855 H   0  0  0  0  0  0  0  0  0  0  0  0
    0.6126    0.7189    0.2211 H   0  0  0  0  0  0  0  0  0  0  0  0
   -3.2202   -0.8352    1.5248 H   0  0  0  0  0  0  0  0  0  0  0  0
   -2.4989    1.0711   -0.7734 H   0  0  0  0  0  0  0  0  0  0  0  0
   -4.0469    0.4307   -0.4798 H   0  0  0  0  0  0  0  0  0  0  0  0
  1  2  2  0
  2  3  1  0
  2  4  1  0
  4  5  2  3
  5  6  1  0
  6  7  1  0
  6  8  2  0
  8  9  2  0
  9 10  1  0
 10 11  1  0
  3 12  1  0
  4 13  1  0
  5 14  1  0
  9 15  1  0
 10 16  1  0
 10 17  1  0
M  CHG  1  11  -1
M  END
>  <Rank>  (24) 
25

>  <Score>  (24) 
0.6190

>  <Pharma_Score>  (24) 
1.0000

>  <QED>  (24) 
0.4240

>  <MW>  (24) 
218.03

>  <LogP>  (24) 
0.42

>  <PSA>  (24) 
60.4

>  <SA_Score>  (24) 
4.48

>  <HBD>  (24) 
1

>  <HBA>  (24) 
2

>  <Lip_Violations>  (24) 
0

>  <SMILES>  (24) 
O=C(O)C=CC(Br)=C=CC[O-]

$$$$
Candidata_026
     RDKit          3D

 26 27  0  0  0  0  0  0  0  0999 V2000
    1.4574   -1.4159   -1.6428 O   0  0  0  0  0  0  0  0  0  0  0  0
    1.8173   -0.6314   -0.7628 C   0  0  0  0  0  0  0  0  0  0  0  0
    3.0331    0.2623   -0.9801 C   0  0  0  0  0  0  0  0  0  0  0  0
    3.4324    1.0456    0.2326 C   0  0  0  0  0  0  0  0  0  0  0  0
    4.9750    2.0815    0.0404 Br  0  0  0  0  0  0  0  0  0  0  0  0
    2.7421    1.0130    1.3791 C   0  0  0  0  0  0  0  0  0  0  0  0
    1.5477    0.2204    1.5102 C   0  0  0  0  0  0  0  0  0  0  0  0
    1.0612   -0.5534    0.5261 C   0  0  0  0  0  0  0  0  0  0  0  0
   -0.1806   -1.3905    0.6657 C   0  0  0  0  0  0  0  0  0  0  0  0
   -1.4209   -0.6920    0.1553 C   0  0  0  0  0  0  0  0  0  0  0  0
   -1.8049   -0.8149   -1.1874 C   0  0  0  0  0  0  0  0  0  0  0  0
   -2.9385   -0.1549   -1.6640 C   0  0  0  0  0  0  0  0  0  0  0  0
   -3.6980    0.6371   -0.8053 C   0  0  0  0  0  0  0  0  0  0  0  0
   -3.3237    0.7717    0.5302 C   0  0  0  0  0  0  0  0  0  0  0  0
   -2.1897    0.1130    1.0088 C   0  0  0  0  0  0  0  0  0  0  0  0
    3.8599   -0.3906   -1.2842 H   0  0  0  0  0  0  0  0  0  0  0  0
    2.7940    0.9449   -1.8036 H   0  0  0  0  0  0  0  0  0  0  0  0
    3.0548    1.5931    2.2436 H   0  0  0  0  0  0  0  0  0  0  0  0
    1.0293    0.2841    2.4644 H   0  0  0  0  0  0  0  0  0  0  0  0
   -0.3360   -1.6567    1.7204 H   0  0  0  0  0  0  0  0  0  0  0  0
   -0.0612   -2.3564    0.1585 H   0  0  0  0  0  0  0  0  0  0  0  0
   -1.2179   -1.4250   -1.8725 H   0  0  0  0  0  0  0  0  0  0  0  0
   -3.2260   -0.2584   -2.7070 H   0  0  0  0  0  0  0  0  0  0  0  0
   -4.5802    1.1505   -1.1780 H   0  0  0  0  0  0  0  0  0  0  0  0
   -3.9152    1.3913    1.1992 H   0  0  0  0  0  0  0  0  0  0  0  0
   -1.9114    0.2315    2.0532 H   0  0  0  0  0  0  0  0  0  0  0  0
  1  2  2  0
  2  3  1  0
  3  4  1  0
  4  5  1  0
  4  6  2  0
  6  7  1  0
  7  8  2  0
  8  9  1  0
  9 10  1  0
 10 11  2  0
 11 12  1  0
 12 13  2  0
 13 14  1  0
 14 15  2  0
  8  2  1  0
 15 10  1  0
  3 16  1  0
  3 17  1  0
  6 18  1  0
  7 19  1  0
  9 20  1  0
  9 21  1  0
 11 22  1  0
 12 23  1  0
 13 24  1  0
 14 25  1  0
 15 26  1  0
M  END
>  <Rank>  (25) 
26

>  <Score>  (25) 
0.5950

>  <Pharma_Score>  (25) 
0.5000

>  <QED>  (25) 
0.7990

>  <MW>  (25) 
263.13

>  <LogP>  (25) 
3.41

>  <PSA>  (25) 
17.1

>  <SA_Score>  (25) 
2.75

>  <HBD>  (25) 
0

>  <HBA>  (25) 
1

>  <Lip_Violations>  (25) 
0

>  <SMILES>  (25) 
O=C1CC(Br)=CC=C1Cc1ccccc1

$$$$
Candidata_027
     RDKit          3D

 27 28  0  0  0  0  0  0  0  0999 V2000
    4.2944   -1.4904    1.1438 O   0  0  0  0  0  0  0  0  0  0  0  0
    3.3664   -0.9341    0.5608 C   0  0  0  0  0  0  0  0  0  0  0  0
    3.5759   -0.1219   -0.6915 C   0  0  0  0  0  0  0  0  0  0  0  0
    3.2699    1.3141   -0.4084 C   0  0  0  0  0  0  0  0  0  0  0  0
    4.6967    2.5087   -0.5796 Br  0  0  0  0  0  0  0  0  0  0  0  0
    2.0457    1.7328   -0.0580 C   0  0  0  0  0  0  0  0  0  0  0  0
    0.9026    0.8575    0.0557 C   0  0  0  0  0  0  0  0  0  0  0  0
    0.9035   -0.4058    0.5253 C   0  0  0  0  0  0  0  0  0  0  0  0
   -0.3249   -1.2776    0.7015 C   0  0  0  0  0  0  0  0  0  0  0  0
   -1.6433   -0.7050    0.2339 C   0  0  0  0  0  0  0  0  0  0  0  0
   -2.4553    0.0229    1.1160 C   0  0  0  0  0  0  0  0  0  0  0  0
   -3.6622    0.5695    0.6777 C   0  0  0  0  0  0  0  0  0  0  0  0
   -4.0676    0.3970   -0.6444 C   0  0  0  0  0  0  0  0  0  0  0  0
   -3.2670   -0.3213   -1.5306 C   0  0  0  0  0  0  0  0  0  0  0  0
   -2.0595   -0.8692   -1.0954 C   0  0  0  0  0  0  0  0  0  0  0  0
    2.0784   -1.0730    0.9940 O   0  0  0  0  0  0  0  0  0  0  0  0
    4.6146   -0.2653   -1.0129 H   0  0  0  0  0  0  0  0  0  0  0  0
    2.9580   -0.5259   -1.5018 H   0  0  0  0  0  0  0  0  0  0  0  0
    1.8532    2.7897    0.1168 H   0  0  0  0  0  0  0  0  0  0  0  0
   -0.0360    1.3272   -0.2365 H   0  0  0  0  0  0  0  0  0  0  0  0
   -0.4140   -1.5449    1.7629 H   0  0  0  0  0  0  0  0  0  0  0  0
   -0.1550   -2.2263    0.1748 H   0  0  0  0  0  0  0  0  0  0  0  0
   -2.1505    0.1694    2.1502 H   0  0  0  0  0  0  0  0  0  0  0  0
   -4.2869    1.1301    1.3685 H   0  0  0  0  0  0  0  0  0  0  0  0
   -5.0085    0.8222   -0.9841 H   0  0  0  0  0  0  0  0  0  0  0  0
   -3.5841   -0.4553   -2.5617 H   0  0  0  0  0  0  0  0  0  0  0  0
   -1.4445   -1.4248   -1.8000 H   0  0  0  0  0  0  0  0  0  0  0  0
  1  2  2  0
  2  3  1  0
  3  4  1  0
  4  5  1  0
  4  6  2  0
  6  7  1  0
  7  8  2  0
  8  9  1  0
  9 10  1  0
 10 11  2  0
 11 12  1  0
 12 13  2  0
 13 14  1  0
 14 15  2  0
  8 16  1  0
 16  2  1  0
 15 10  1  0
  3 17  1  0
  3 18  1  0
  6 19  1  0
  7 20  1  0
  9 21  1  0
  9 22  1  0
 11 23  1  0
 12 24  1  0
 13 25  1  0
 14 26  1  0
 15 27  1  0
M  END
>  <Rank>  (26) 
27

>  <Score>  (26) 
0.5780

>  <Pharma_Score>  (26) 
0.5000

>  <QED>  (26) 
0.7760

>  <MW>  (26) 
279.13

>  <LogP>  (26) 
3.34

>  <PSA>  (26) 
26.3

>  <SA_Score>  (26) 
2.96

>  <HBD>  (26) 
0

>  <HBA>  (26) 
2

>  <Lip_Violations>  (26) 
0

>  <SMILES>  (26) 
O=C1CC(Br)=CC=C(Cc2ccccc2)O1

$$$$
Candidata_028
     RDKit          3D

 28 28  0  0  0  0  0  0  0  0999 V2000
    5.3628    0.6176    0.7087 C   0  0  0  0  0  0  0  0  0  0  0  0
    3.9224    0.5287    1.1444 C   0  0  0  0  0  0  0  0  0  0  0  0
    3.5923   -0.1806    2.0945 O   0  0  0  0  0  0  0  0  0  0  0  0
    2.9146    1.3441    0.3940 C   0  0  0  0  0  0  0  0  0  0  0  0
    3.3296    3.1556    0.1285 Br  0  0  0  0  0  0  0  0  0  0  0  0
    1.7698    0.8245   -0.0869 C   0  0  0  0  0  0  0  0  0  0  0  0
    1.3194   -0.5486    0.0175 C   0  0  0  0  0  0  0  0  0  0  0  0
    0.1991   -1.0637   -0.5164 C   0  0  0  0  0  0  0  0  0  0  0  0
   -0.8478   -0.3880   -1.3587 C   0  0  0  0  0  0  0  0  0  0  0  0
   -2.2011   -0.3748   -0.6879 C   0  0  0  0  0  0  0  0  0  0  0  0
   -2.4640    0.5191    0.3606 C   0  0  0  0  0  0  0  0  0  0  0  0
   -3.7106    0.5286    0.9880 C   0  0  0  0  0  0  0  0  0  0  0  0
   -4.7057   -0.3558    0.5765 C   0  0  0  0  0  0  0  0  0  0  0  0
   -4.4544   -1.2524   -0.4605 C   0  0  0  0  0  0  0  0  0  0  0  0
   -3.2079   -1.2642   -1.0891 C   0  0  0  0  0  0  0  0  0  0  0  0
    5.4355    0.8569   -0.3557 H   0  0  0  0  0  0  0  0  0  0  0  0
    5.8418   -0.3544    0.8604 H   0  0  0  0  0  0  0  0  0  0  0  0
    5.8806    1.3767    1.2999 H   0  0  0  0  0  0  0  0  0  0  0  0
    1.1038    1.5017   -0.6160 H   0  0  0  0  0  0  0  0  0  0  0  0
    1.9385   -1.2319    0.5994 H   0  0  0  0  0  0  0  0  0  0  0  0
    0.0054   -2.1202   -0.3263 H   0  0  0  0  0  0  0  0  0  0  0  0
   -0.9145   -0.9236   -2.3144 H   0  0  0  0  0  0  0  0  0  0  0  0
   -0.5802    0.6395   -1.6249 H   0  0  0  0  0  0  0  0  0  0  0  0
   -1.6936    1.2089    0.6982 H   0  0  0  0  0  0  0  0  0  0  0  0
   -3.9033    1.2237    1.8009 H   0  0  0  0  0  0  0  0  0  0  0  0
   -5.6755   -0.3491    1.0667 H   0  0  0  0  0  0  0  0  0  0  0  0
   -5.2292   -1.9450   -0.7785 H   0  0  0  0  0  0  0  0  0  0  0  0
   -3.0276   -1.9736   -1.8934 H   0  0  0  0  0  0  0  0  0  0  0  0
  1  2  1  0
  2  3  2  0
  2  4  1  0
  4  5  1  0
  4  6  2  3
  6  7  1  0
  7  8  2  3
  8  9  1  0
  9 10  1  0
 10 11  2  0
 11 12  1  0
 12 13  2  0
 13 14  1  0
 14 15  2  0
 15 10  1  0
  1 16  1  0
  1 17  1  0
  1 18  1  0
  6 19  1  0
  7 20  1  0
  8 21  1  0
  9 22  1  0
  9 23  1  0
 11 24  1  0
 12 25  1  0
 13 26  1  0
 14 27  1  0
 15 28  1  0
M  END
>  <Rank>  (27) 
28

>  <Score>  (27) 
0.5260

>  <Pharma_Score>  (27) 
0.5000

>  <QED>  (27) 
0.6000

>  <MW>  (27) 
265.15

>  <LogP>  (27) 
3.65

>  <PSA>  (27) 
17.1

>  <SA_Score>  (27) 
2.73

>  <HBD>  (27) 
0

>  <HBA>  (27) 
1

>  <Lip_Violations>  (27) 
0

>  <SMILES>  (27) 
CC(=O)C(Br)=CC=CCc1ccccc1

$$$$
Candidata_029
     RDKit          3D

 11 10  0  0  0  0  0  0  0  0999 V2000
   -1.9609    0.5098    0.2986 C   0  0  0  0  0  0  0  0  0  0  0  0
   -0.7829   -0.1130    0.4247 C   0  0  0  0  0  0  0  0  0  0  0  0
    0.3808    0.2738   -0.4232 C   0  0  0  0  0  0  0  0  0  0  0  0
    1.6669   -0.4779   -0.2048 C   0  0  0  0  0  0  0  0  0  0  0  0
    0.2906    1.1527   -1.2774 O   0  0  0  0  0  0  0  0  0  0  0  0
   -2.8092    0.2298    0.9137 H   0  0  0  0  0  0  0  0  0  0  0  0
   -2.1056    1.3120   -0.4210 H   0  0  0  0  0  0  0  0  0  0  0  0
   -0.6438   -0.9121    1.1422 H   0  0  0  0  0  0  0  0  0  0  0  0
    1.6560   -1.0168    0.7465 H   0  0  0  0  0  0  0  0  0  0  0  0
    2.4975    0.2331   -0.1791 H   0  0  0  0  0  0  0  0  0  0  0  0
    1.8107   -1.1914   -1.0200 H   0  0  0  0  0  0  0  0  0  0  0  0
  1  2  2  0
  2  3  1  0
  3  4  1  0
  3  5  2  0
  1  6  1  0
  1  7  1  0
  2  8  1  0
  4  9  1  0
  4 10  1  0
  4 11  1  0
M  END
>  <Rank>  (28) 
29

>  <Score>  (28) 
0.4670

>  <Pharma_Score>  (28) 
0.5000

>  <QED>  (28) 
0.4160

>  <MW>  (28) 
70.09

>  <LogP>  (28) 
0.76

>  <PSA>  (28) 
17.1

>  <SA_Score>  (28) 
2.60

>  <HBD>  (28) 
0

>  <HBA>  (28) 
1

>  <Lip_Violations>  (28) 
0

>  <SMILES>  (28) 
C=CC(C)=O

$$$$
Candidata_030
     RDKit          3D

 27 28  0  0  0  0  0  0  0  0999 V2000
    5.3339   -0.6678   -1.0595 C   0  0  0  0  0  0  0  0  0  0  0  0
    4.1418   -0.6308   -0.4530 C   0  0  0  0  0  0  0  0  0  0  0  0
    2.8971   -0.8580   -1.1502 C   0  0  0  0  0  0  0  0  0  0  0  0
    1.7028   -0.8239   -0.5390 C   0  0  0  0  0  0  0  0  0  0  0  0
    0.4601   -1.0415   -1.2449 C   0  0  0  0  0  0  0  0  0  0  0  0
   -0.7685   -1.0588   -0.7038 C   0  0  0  0  0  0  0  0  0  0  0  0
   -1.1453   -0.9177    0.7491 C   0  0  0  0  0  0  0  0  0  0  0  0
   -1.6584    0.4807    1.0952 C   0  0  0  0  0  0  0  0  0  0  0  0
   -2.3726    0.5667    2.4163 C   0  0  0  0  0  0  0  0  0  0  0  0
   -3.6407    1.0021    2.2434 C   0  0  0  0  0  0  0  0  0  0  0  0
   -4.8967    1.2500    3.5652 Br  0  0  0  0  0  0  0  0  0  0  0  0
   -3.9003    1.3946    0.8589 C   0  0  0  0  0  0  0  0  0  0  0  0
   -2.7288    1.1373    0.2569 C   0  0  0  0  0  0  0  0  0  0  0  0
   -1.6803    1.9819   -0.2683 C   0  0  0  0  0  0  0  0  0  0  0  0
   -1.5884    2.8480   -1.1115 O   0  0  0  0  0  0  0  0  0  0  0  0
   -0.7826    1.5595    0.6672 O   0  0  0  0  0  0  0  0  0  0  0  0
    5.4377   -0.8726   -2.1203 H   0  0  0  0  0  0  0  0  0  0  0  0
    6.2442   -0.4884   -0.4958 H   0  0  0  0  0  0  0  0  0  0  0  0
    4.0982   -0.4181    0.6131 H   0  0  0  0  0  0  0  0  0  0  0  0
    2.9589   -1.0619   -2.2174 H   0  0  0  0  0  0  0  0  0  0  0  0
    1.6559   -0.6114    0.5251 H   0  0  0  0  0  0  0  0  0  0  0  0
    0.5388   -1.1868   -2.3228 H   0  0  0  0  0  0  0  0  0  0  0  0
   -1.6046   -1.2281   -1.3834 H   0  0  0  0  0  0  0  0  0  0  0  0
   -0.3039   -1.1735    1.4028 H   0  0  0  0  0  0  0  0  0  0  0  0
   -1.9180   -1.6698    0.9584 H   0  0  0  0  0  0  0  0  0  0  0  0
   -1.9284    0.2701    3.3553 H   0  0  0  0  0  0  0  0  0  0  0  0
   -4.5521    2.2183    0.5972 H   0  0  0  0  0  0  0  0  0  0  0  0
  1  2  2  0
  2  3  1  0
  3  4  2  3
  4  5  1  0
  5  6  2  3
  6  7  1  0
  7  8  1  0
  8  9  1  0
  9 10  2  0
 10 11  1  0
 10 12  1  0
 12 13  2  0
 13 14  1  0
 14 15  2  0
 14 16  1  0
 13  8  1  0
 16  8  1  0
  1 17  1  0
  1 18  1  0
  2 19  1  0
  3 20  1  0
  4 21  1  0
  5 22  1  0
  6 23  1  0
  7 24  1  0
  7 25  1  0
  9 26  1  0
 12 27  1  0
M  END
>  <Rank>  (29) 
30

>  <Score>  (29) 
0.4390

>  <Pharma_Score>  (29) 
0.5000

>  <QED>  (29) 
0.5830

>  <MW>  (29) 
279.13

>  <LogP>  (29) 
3.19

>  <PSA>  (29) 
26.3

>  <SA_Score>  (29) 
4.75

>  <HBD>  (29) 
0

>  <HBA>  (29) 
2

>  <Lip_Violations>  (29) 
0

>  <SMILES>  (29) 
C=CC=CC=CCC12C=C(Br)C=C1C(=O)O2

$$$$
Candidata_031
     RDKit          3D

 14 14  0  0  0  0  0  0  0  0999 V2000
    1.1625    2.5809    0.3059 B   0  0  0  0  0  1  0  0  0  0  0  0
    0.2091    1.1164    0.1570 C   0  0  0  0  0  0  0  0  0  0  0  0
   -1.1567    1.1533    0.2777 C   0  0  0  0  0  0  0  0  0  0  0  0
   -1.9410    0.0164    0.1659 C   0  0  0  0  0  0  0  0  0  0  0  0
   -1.2950   -1.1794   -0.0755 C   0  0  0  0  0  0  0  0  0  0  0  0
    0.0795   -1.2067   -0.1954 C   0  0  0  0  0  0  0  0  0  0  0  0
    0.8706   -0.0822   -0.0861 C   0  0  0  0  0  0  0  0  0  0  0  0
    2.3117   -0.1317   -0.2151 C   0  0  0  0  0  0  0  0  0  0  0  0
    2.9624    0.9395   -0.1024 O   0  0  0  0  0  0  0  0  0  0  0  0
   -1.6514    2.0871    0.4654 H   0  0  0  0  0  0  0  0  0  0  0  0
   -3.0214    0.0314    0.2592 H   0  0  0  0  0  0  0  0  0  0  0  0
   -1.9054   -2.0862   -0.1660 H   0  0  0  0  0  0  0  0  0  0  0  0
    0.6050   -2.1435   -0.3862 H   0  0  0  0  0  0  0  0  0  0  0  0
    2.7701   -1.0951   -0.4044 H   0  0  0  0  0  0  0  0  0  0  0  0
  1  2  1  0
  2  3  2  0
  3  4  1  0
  4  5  2  0
  5  6  1  0
  6  7  2  0
  7  8  1  0
  8  9  2  0
  7  2  1  0
  3 10  1  0
  4 11  1  0
  5 12  1  0
  6 13  1  0
  8 14  1  0
M  CHG  1   1   1
M  RAD  1   1   2
M  END
>  <Rank>  (30) 
31

>  <Score>  (30) 
0.4250

>  <Pharma_Score>  (30) 
0.5000

>  <QED>  (30) 
0.3800

>  <MW>  (30) 
115.93

>  <LogP>  (30) 
0.29

>  <PSA>  (30) 
17.1

>  <SA_Score>  (30) 
3.32

>  <HBD>  (30) 
0

>  <HBA>  (30) 
1

>  <Lip_Violations>  (30) 
0

>  <SMILES>  (30) 
[B+]c1ccccc1C=O

$$$$
