Candidata_001
     RDKit          3D

 17 18  0  0  0  0  0  0  0  0999 V2000
   -1.5909   -0.4401   -2.5824 O   0  0  0  0  0  0  0  0  0  0  0  0
   -1.5490   -0.7589   -1.4089 C   0  0  0  0  0  0  0  0  0  0  0  0
   -1.4164   -2.0421   -1.0353 O   0  0  0  0  0  0  0  0  0  0  0  0
   -1.7687    0.1481   -0.2600 C   0  0  0  0  0  0  0  0  0  0  0  0
   -2.7589    1.1268   -0.4451 C   0  0  0  0  0  0  0  0  0  0  0  0
   -3.0544    2.0219    0.5782 C   0  0  0  0  0  0  0  0  0  0  0  0
   -4.3969    3.3282    0.3262 Br  0  0  0  0  0  0  0  0  0  0  0  0
   -2.3693    1.9607    1.7869 C   0  0  0  0  0  0  0  0  0  0  0  0
   -1.3703    1.0022    1.9694 C   0  0  0  0  0  0  0  0  0  0  0  0
   -1.0445    0.0860    0.9494 C   0  0  0  0  0  0  0  0  0  0  0  0
    0.0936   -0.8853    1.1960 C   0  0  0  0  0  0  0  0  0  0  0  0
    1.3107   -0.6738    0.3213 C   0  0  0  0  0  0  0  0  0  0  0  0
    1.8598   -1.7491   -0.3925 C   0  0  0  0  0  0  0  0  0  0  0  0
    2.9926   -1.5703   -1.1883 C   0  0  0  0  0  0  0  0  0  0  0  0
    3.5954   -0.3173   -1.2726 C   0  0  0  0  0  0  0  0  0  0  0  0
    3.0691    0.7564   -0.5579 C   0  0  0  0  0  0  0  0  0  0  0  0
    1.9367    0.5792    0.2389 C   0  0  0  0  0  0  0  0  0  0  0  0
  1  2  2  0
  2  3  1  0
  2  4  1  0
  4  5  1  0
  5  6  2  0
  6  7  1  0
  6  8  1  0
  8  9  2  0
  9 10  1  0
 10 11  1  0
 11 12  1  0
 12 13  2  0
 13 14  1  0
 14 15  2  0
 15 16  1  0
 16 17  2  0
 10  4  2  0
 17 12  1  0
M  END
>  <Rank>  (1) 
1

>  <Score>  (1) 
0.9110

>  <Pharma_Score>  (1) 
1.0000

>  <QED>  (1) 
0.9350

>  <MW>  (1) 
291.14

>  <LogP>  (1) 
3.74

>  <PSA>  (1) 
37.3

>  <SA_Score>  (1) 
1.66

>  <HBD>  (1) 
1

>  <HBA>  (1) 
1

>  <Lip_Violations>  (1) 
0

>  <SMILES>  (1) 
O=C(O)c1cc(Br)ccc1Cc1ccccc1

$$$$
Candidata_002
     RDKit          3D

 19 20  0  0  0  0  0  0  0  0999 V2000
   -0.8079    2.2235   -0.1583 O   0  0  0  0  0  0  0  0  0  0  0  0
   -1.0547    1.2863    0.5746 C   0  0  0  0  0  0  0  0  0  0  0  0
   -0.5627    1.1942    1.8219 O   0  0  0  0  0  0  0  0  0  0  0  0
   -1.8892    0.1118    0.2518 C   0  0  0  0  0  0  0  0  0  0  0  0
   -2.9237   -0.2129    1.1427 C   0  0  0  0  0  0  0  0  0  0  0  0
   -3.7698   -1.2803    0.8590 C   0  0  0  0  0  0  0  0  0  0  0  0
   -5.1656   -1.7160    2.0569 Br  0  0  0  0  0  0  0  0  0  0  0  0
   -3.5991   -2.0271   -0.3030 C   0  0  0  0  0  0  0  0  0  0  0  0
   -2.5654   -1.7090   -1.1870 C   0  0  0  0  0  0  0  0  0  0  0  0
   -1.6907   -0.6367   -0.9253 C   0  0  0  0  0  0  0  0  0  0  0  0
   -0.5446   -0.3832   -1.8816 C   0  0  0  0  0  0  0  0  0  0  0  0
    0.5619   -1.3928   -1.7248 C   0  0  0  0  0  0  0  0  0  0  0  0
    1.7285   -1.2642   -1.0710 C   0  0  0  0  0  0  0  0  0  0  0  0
    2.1909   -0.0939   -0.3212 C   0  0  0  0  0  0  0  0  0  0  0  0
    2.4577   -0.2243    1.0471 C   0  0  0  0  0  0  0  0  0  0  0  0
    2.9304    0.8641    1.7845 C   0  0  0  0  0  0  0  0  0  0  0  0
    3.1432    2.0903    1.1577 C   0  0  0  0  0  0  0  0  0  0  0  0
    2.8897    2.2259   -0.2063 C   0  0  0  0  0  0  0  0  0  0  0  0
    2.4231    1.1357   -0.9451 C   0  0  0  0  0  0  0  0  0  0  0  0
  1  2  2  0
  2  3  1  0
  2  4  1  0
  4  5  1  0
  5  6  2  0
  6  7  1  0
  6  8  1  0
  8  9  2  0
  9 10  1  0
 10 11  1  0
 11 12  1  0
 12 13  2  3
 13 14  1  0
 14 15  2  0
 15 16  1  0
 16 17  2  0
 17 18  1  0
 18 19  2  0
 10  4  2  0
 19 14  1  0
M  END
>  <Rank>  (2) 
2

>  <Score>  (2) 
0.8860

>  <Pharma_Score>  (2) 
1.0000

>  <QED>  (2) 
0.9070

>  <MW>  (2) 
317.18

>  <LogP>  (2) 
4.40

>  <PSA>  (2) 
37.3

>  <SA_Score>  (2) 
2.04

>  <HBD>  (2) 
1

>  <HBA>  (2) 
1

>  <Lip_Violations>  (2) 
0

>  <SMILES>  (2) 
O=C(O)c1cc(Br)ccc1CC=Cc1ccccc1

$$$$
Candidata_003
     RDKit          3D

 11 11  0  0  0  0  0  0  0  0999 V2000
    1.5567   -1.2192    0.7168 C   0  0  0  0  0  0  0  0  0  0  0  0
    0.2483   -0.6429    0.2510 C   0  0  0  0  0  0  0  0  0  0  0  0
   -0.9045   -1.4435    0.3422 C   0  0  0  0  0  0  0  0  0  0  0  0
   -2.1518   -0.9556   -0.0525 C   0  0  0  0  0  0  0  0  0  0  0  0
   -2.2612    0.3405   -0.5450 C   0  0  0  0  0  0  0  0  0  0  0  0
   -3.9512    1.0048   -1.0697 Br  0  0  0  0  0  0  0  0  0  0  0  0
   -1.1340    1.1493   -0.6583 C   0  0  0  0  0  0  0  0  0  0  0  0
    0.1263    0.6586   -0.2790 C   0  0  0  0  0  0  0  0  0  0  0  0
    1.2610    1.5979   -0.4563 C   0  0  0  0  0  0  0  0  0  0  0  0
    1.1907    2.8112   -0.3864 O   0  0  0  0  0  0  0  0  0  0  0  0
    2.4065    0.9866   -0.7980 O   0  0  0  0  0  0  0  0  0  0  0  0
  1  2  1  0
  2  3  1  0
  3  4  2  0
  4  5  1  0
  5  6  1  0
  5  7  2  0
  7  8  1  0
  8  9  1  0
  9 10  2  0
  9 11  1  0
  8  2  2  0
M  END
>  <Rank>  (3) 
3

>  <Score>  (3) 
0.8600

>  <Pharma_Score>  (3) 
1.0000

>  <QED>  (3) 
0.7810

>  <MW>  (3) 
215.05

>  <LogP>  (3) 
2.46

>  <PSA>  (3) 
37.3

>  <SA_Score>  (3) 
1.59

>  <HBD>  (3) 
1

>  <HBA>  (3) 
1

>  <Lip_Violations>  (3) 
0

>  <SMILES>  (3) 
Cc1ccc(Br)cc1C(=O)O

$$$$
Candidata_004
     RDKit          3D

 12 12  0  0  0  0  0  0  0  0999 V2000
    0.0607    2.8698   -1.4718 O   0  0  0  0  0  0  0  0  0  0  0  0
    0.6090    1.9998   -0.8030 C   0  0  0  0  0  0  0  0  0  0  0  0
   -0.1200    0.7875   -0.3676 C   0  0  0  0  0  0  0  0  0  0  0  0
   -1.5075    0.7447   -0.5807 C   0  0  0  0  0  0  0  0  0  0  0  0
   -2.2615   -0.3402   -0.1267 C   0  0  0  0  0  0  0  0  0  0  0  0
   -1.6326   -1.3832    0.5485 C   0  0  0  0  0  0  0  0  0  0  0  0
   -2.6534   -2.8450    1.1746 Br  0  0  0  0  0  0  0  0  0  0  0  0
   -0.2558   -1.3590    0.7624 C   0  0  0  0  0  0  0  0  0  0  0  0
    0.5079   -0.2795    0.2895 C   0  0  0  0  0  0  0  0  0  0  0  0
    1.9601   -0.3602    0.5247 C   0  0  0  0  0  0  0  0  0  0  0  0
    2.4939   -0.7653    1.5379 O   0  0  0  0  0  0  0  0  0  0  0  0
    2.6610   -0.0238   -0.5686 O   0  0  0  0  0  0  0  0  0  0  0  0
  1  2  2  0
  2  3  1  0
  3  4  1  0
  4  5  2  0
  5  6  1  0
  6  7  1  0
  6  8  2  0
  8  9  1  0
  9 10  1  0
 10 11  2  0
 10 12  1  0
  9  3  2  0
M  END
>  <Rank>  (4) 
4

>  <Score>  (4) 
0.8430

>  <Pharma_Score>  (4) 
1.0000

>  <QED>  (4) 
0.7880

>  <MW>  (4) 
229.03

>  <LogP>  (4) 
1.96

>  <PSA>  (4) 
54.4

>  <SA_Score>  (4) 
2.08

>  <HBD>  (4) 
1

>  <HBA>  (4) 
2

>  <Lip_Violations>  (4) 
0

>  <SMILES>  (4) 
O=Cc1ccc(Br)cc1C(=O)O

$$$$
Candidata_005
     RDKit          3D

 17 18  0  0  0  0  0  0  0  0999 V2000
   -1.5882    2.9529   -0.1817 O   0  0  0  0  0  0  0  0  0  0  0  0
   -2.4950    2.0827   -0.1162 C   0  0  0  0  0  0  0  0  0  0  0  0
   -3.8047    2.5369   -0.1524 O   0  0  0  0  0  0  0  0  0  0  0  0
   -2.1902    0.6673   -0.0076 C   0  0  0  0  0  0  0  0  0  0  0  0
   -3.2276   -0.2376    0.0604 C   0  0  0  0  0  0  0  0  0  0  0  0
   -2.9884   -1.5860    0.1638 C   0  0  0  0  0  0  0  0  0  0  0  0
   -4.3691   -2.7174    0.2488 P   0  0  0  0  0  1  0  0  0  0  0  0
   -1.6835   -2.0332    0.1994 C   0  0  0  0  0  0  0  0  0  0  0  0
   -0.6556   -1.1087    0.1299 C   0  0  0  0  0  0  0  0  0  0  0  0
   -0.8980    0.2497    0.0257 C   0  0  0  0  0  0  0  0  0  0  0  0
    0.2643    1.1571   -0.0424 C   0  0  0  0  0  0  0  0  0  0  0  0
    1.5591    0.4027    0.0168 C   0  0  0  0  0  0  0  0  0  0  0  0
    2.1488   -0.0334   -1.1752 C   0  0  0  0  0  0  0  0  0  0  0  0
    3.3324   -0.7281   -1.1871 C   0  0  0  0  0  0  0  0  0  0  0  0
    3.9657   -1.0083    0.0144 C   0  0  0  0  0  0  0  0  0  0  0  0
    3.3878   -0.5791    1.2081 C   0  0  0  0  0  0  0  0  0  0  0  0
    2.1926    0.1217    1.2103 C   0  0  0  0  0  0  0  0  0  0  0  0
  1  2  2  0
  2  3  1  0
  2  4  1  0
  4  5  1  0
  5  6  2  0
  6  7  1  0
  6  8  1  0
  8  9  2  0
  9 10  1  0
 10 11  1  0
 11 12  1  0
 12 13  2  0
 13 14  1  0
 14 15  2  0
 15 16  1  0
 16 17  2  0
 10  4  2  0
 17 12  1  0
M  CHG  1   7  -1
M  RAD  1   7   2
M  END
>  <Rank>  (5) 
5

>  <Score>  (5) 
0.8420

>  <Pharma_Score>  (5) 
1.0000

>  <QED>  (5) 
0.8400

>  <MW>  (5) 
242.21

>  <LogP>  (5) 
3.01

>  <PSA>  (5) 
37.3

>  <SA_Score>  (5) 
2.55

>  <HBD>  (5) 
1

>  <HBA>  (5) 
1

>  <Lip_Violations>  (5) 
0

>  <SMILES>  (5) 
O=C(O)c1cc([P-])ccc1Cc1ccccc1

$$$$
Candidata_006
     RDKit          3D

 16 17  0  0  0  0  0  0  0  0999 V2000
   -0.8504    2.8728   -0.2605 O   0  0  0  0  0  0  0  0  0  0  0  0
   -1.7238    2.0620   -0.4998 C   0  0  0  0  0  0  0  0  0  0  0  0
   -2.8508    2.4153   -1.1439 O   0  0  0  0  0  0  0  0  0  0  0  0
   -1.7129    0.6159   -0.1624 C   0  0  0  0  0  0  0  0  0  0  0  0
   -2.9306    0.0234    0.2168 C   0  0  0  0  0  0  0  0  0  0  0  0
   -2.9647   -1.3082    0.6184 C   0  0  0  0  0  0  0  0  0  0  0  0
   -4.6055   -2.0935    1.1320 Br  0  0  0  0  0  0  0  0  0  0  0  0
   -1.7970   -2.0601    0.6602 C   0  0  0  0  0  0  0  0  0  0  0  0
   -0.5850   -1.4788    0.2815 C   0  0  0  0  0  0  0  0  0  0  0  0
   -0.5178   -0.1399   -0.1590 C   0  0  0  0  0  0  0  0  0  0  0  0
    0.8298    0.4527   -0.5843 C   0  0  0  0  0  0  0  0  0  0  0  0
    1.6394   -0.5098   -1.4377 C   0  0  0  0  0  0  0  0  0  0  0  0
    2.7970   -1.0493   -1.0287 C   0  0  0  0  0  0  0  0  0  0  0  0
    3.3363   -0.7664    0.2768 C   0  0  0  0  0  0  0  0  0  0  0  0
    2.8030    0.1790    1.0625 C   0  0  0  0  0  0  0  0  0  0  0  0
    1.6060    0.9959    0.6492 C   0  0  0  0  0  0  0  0  0  0  0  0
  1  2  2  0
  2  3  1  0
  2  4  1  0
  4  5  1  0
  5  6  2  0
  6  7  1  0
  6  8  1  0
  8  9  2  0
  9 10  1  0
 10 11  1  0
 11 12  1  0
 12 13  2  0
 13 14  1  0
 14 15  2  0
 15 16  1  0
 10  4  2  0
 16 11  1  0
M  END
>  <Rank>  (6) 
6

>  <Score>  (6) 
0.8400

>  <Pharma_Score>  (6) 
1.0000

>  <QED>  (6) 
0.8950

>  <MW>  (6) 
279.13

>  <LogP>  (6) 
3.75

>  <PSA>  (6) 
37.3

>  <SA_Score>  (6) 
3.08

>  <HBD>  (6) 
1

>  <HBA>  (6) 
1

>  <Lip_Violations>  (6) 
0

>  <SMILES>  (6) 
O=C(O)c1cc(Br)ccc1C1C=CC=CC1

$$$$
Candidata_007
     RDKit          3D

 16 16  0  0  0  0  0  0  0  0999 V2000
   -3.1985   -0.2887   -4.0736 O   0  0  0  0  0  0  0  0  0  0  0  0
   -2.8831    0.2904   -3.0995 C   0  0  0  0  0  0  0  0  0  0  0  0
   -2.5907    0.9842   -2.0380 C   0  0  0  0  0  0  0  0  0  0  0  0
   -1.6483    0.6585   -1.0839 N   0  0  0  0  0  0  0  0  0  0  0  0
   -0.8056   -0.4350   -1.1091 C   0  0  0  0  0  0  0  0  0  0  0  0
   -0.7933   -1.2776   -2.0007 O   0  0  0  0  0  0  0  0  0  0  0  0
    0.1132   -0.6402    0.0497 C   0  0  0  0  0  0  0  0  0  0  0  0
    0.3029   -1.9815    0.4375 C   0  0  0  0  0  0  0  0  0  0  0  0
    1.1793   -2.3193    1.4721 C   0  0  0  0  0  0  0  0  0  0  0  0
    1.8892   -1.3180    2.1248 C   0  0  0  0  0  0  0  0  0  0  0  0
    3.0783   -1.7670    3.5226 Br  0  0  0  0  0  0  0  0  0  0  0  0
    1.7306    0.0143    1.7521 C   0  0  0  0  0  0  0  0  0  0  0  0
    0.8452    0.3567    0.7131 C   0  0  0  0  0  0  0  0  0  0  0  0
    0.7258    1.7853    0.3858 C   0  0  0  0  0  0  0  0  0  0  0  0
   -0.3191    2.4002    0.2881 O   0  0  0  0  0  0  0  0  0  0  0  0
    1.9283    2.3539    0.2142 O   0  0  0  0  0  0  0  0  0  0  0  0
  1  2  2  0
  2  3  2  0
  3  4  1  0
  4  5  1  0
  5  6  2  0
  5  7  1  0
  7  8  1  0
  8  9  2  0
  9 10  1  0
 10 11  1  0
 10 12  2  0
 12 13  1  0
 13 14  1  0
 14 15  2  0
 14 16  1  0
 13  7  2  0
M  END
>  <Rank>  (7) 
7

>  <Score>  (7) 
0.8240

>  <Pharma_Score>  (7) 
1.0000

>  <QED>  (7) 
0.8170

>  <MW>  (7) 
284.06

>  <LogP>  (7) 
1.22

>  <PSA>  (7) 
83.5

>  <SA_Score>  (7) 
2.79

>  <HBD>  (7) 
2

>  <HBA>  (7) 
3

>  <Lip_Violations>  (7) 
0

>  <SMILES>  (7) 
O=C=CNC(=O)c1ccc(Br)cc1C(=O)O

$$$$
Candidata_008
     RDKit          3D

 10 11  0  0  0  0  0  0  0  0999 V2000
    2.7734   -0.2379   -1.5434 O   0  0  0  0  0  0  0  0  0  0  0  0
    2.2293   -0.4110   -0.4688 C   0  0  0  0  0  0  0  0  0  0  0  0
    2.9008   -0.8783    0.5967 O   0  0  0  0  0  0  0  0  0  0  0  0
    0.8488   -0.1608   -0.1635 C   0  0  0  0  0  0  0  0  0  0  0  0
   -0.0238   -0.2173    0.7834 C   0  0  0  0  0  0  0  0  0  0  0  0
   -1.3479   -0.0429    1.3068 C   0  0  0  0  0  0  0  0  0  0  0  0
   -2.1956    0.4251    0.3903 C   0  0  0  0  0  0  0  0  0  0  0  0
   -1.5161    0.6148   -0.8589 C   0  0  0  0  0  0  0  0  0  0  0  0
   -2.4219    1.2564   -2.3354 Br  0  0  0  0  0  0  0  0  0  0  0  0
   -0.2169    0.2965   -0.8552 C   0  0  0  0  0  0  0  0  0  0  0  0
  1  2  2  0
  2  3  1  0
  2  4  1  0
  4  5  2  0
  5  6  1  0
  6  7  2  0
  7  8  1  0
  8  9  1  0
  8 10  2  0
 10  4  1  0
 10  5  1  0
M  END
>  <Rank>  (8) 
8

>  <Score>  (8) 
0.8190

>  <Pharma_Score>  (8) 
1.0000

>  <QED>  (8) 
0.7630

>  <MW>  (8) 
199.00

>  <LogP>  (8) 
2.13

>  <PSA>  (8) 
37.3

>  <SA_Score>  (8) 
2.44

>  <HBD>  (8) 
1

>  <HBA>  (8) 
1

>  <Lip_Violations>  (8) 
0

>  <SMILES>  (8) 
O=C(O)c1c2ccc(Br)c1-2

$$$$
Candidata_009
     RDKit          3D

 13 13  0  0  0  0  0  0  0  0999 V2000
    2.8378   -0.2448   -2.8361 O   0  0  0  0  0  0  0  0  0  0  0  0
    3.1205    0.1880   -1.7313 C   0  0  0  0  0  0  0  0  0  0  0  0
    3.8127    1.3419   -1.6155 O   0  0  0  0  0  0  0  0  0  0  0  0
    2.8342   -0.4374   -0.3794 C   0  0  0  0  0  0  0  0  0  0  0  0
    1.7997   -1.5242   -0.4818 C   0  0  0  0  0  0  0  0  0  0  0  0
    0.6394   -1.6248    0.1895 C   0  0  0  0  0  0  0  0  0  0  0  0
    0.0883   -0.6956    1.2356 C   0  0  0  0  0  0  0  0  0  0  0  0
   -1.1806   -0.0135    0.7833 C   0  0  0  0  0  0  0  0  0  0  0  0
   -2.4340   -0.4889    1.1940 C   0  0  0  0  0  0  0  0  0  0  0  0
   -3.6047    0.1387    0.7642 C   0  0  0  0  0  0  0  0  0  0  0  0
   -3.5348    1.2429   -0.0833 C   0  0  0  0  0  0  0  0  0  0  0  0
   -2.2949    1.7196   -0.5042 C   0  0  0  0  0  0  0  0  0  0  0  0
   -1.1232    1.0942   -0.0751 C   0  0  0  0  0  0  0  0  0  0  0  0
  1  2  2  0
  2  3  1  0
  2  4  1  0
  4  5  1  0
  5  6  2  3
  6  7  1  0
  7  8  1  0
  8  9  2  0
  9 10  1  0
 10 11  2  0
 11 12  1  0
 12 13  2  0
 13  8  1  0
M  END
>  <Rank>  (9) 
9

>  <Score>  (9) 
0.8170

>  <Pharma_Score>  (9) 
1.0000

>  <QED>  (9) 
0.7140

>  <MW>  (9) 
176.22

>  <LogP>  (9) 
2.26

>  <PSA>  (9) 
37.3

>  <SA_Score>  (9) 
2.08

>  <HBD>  (9) 
1

>  <HBA>  (9) 
1

>  <Lip_Violations>  (9) 
0

>  <SMILES>  (9) 
O=C(O)CC=CCc1ccccc1

$$$$
Candidata_010
     RDKit          3D

 15 15  0  0  0  0  0  0  0  0999 V2000
    3.5006    0.4068    1.3985 C   0  0  0  0  0  0  0  0  0  0  0  0
    2.3922   -0.4663    0.9076 C   0  0  0  0  0  0  0  0  0  0  0  0
    1.5914   -0.1537   -0.1253 C   0  0  0  0  0  0  0  0  0  0  0  0
    0.4540   -1.0177   -0.6158 C   0  0  0  0  0  0  0  0  0  0  0  0
    0.8840   -1.5887   -1.9002 N   0  0  0  0  0  0  0  0  0  0  0  0
   -0.8570   -0.2377   -0.7055 C   0  0  0  0  0  0  0  0  0  0  0  0
   -1.4954   -0.0187   -1.9451 C   0  0  0  0  0  0  0  0  0  0  0  0
   -2.6652    0.7420   -2.0440 C   0  0  0  0  0  0  0  0  0  0  0  0
   -3.2234    1.3046   -0.9029 C   0  0  0  0  0  0  0  0  0  0  0  0
   -4.7956    2.3438   -1.0392 Br  0  0  0  0  0  0  0  0  0  0  0  0
   -2.6337    1.1005    0.3387 C   0  0  0  0  0  0  0  0  0  0  0  0
   -1.4708    0.3187    0.4421 C   0  0  0  0  0  0  0  0  0  0  0  0
   -0.9489    0.1492    1.8145 C   0  0  0  0  0  0  0  0  0  0  0  0
   -0.8279    1.0307    2.6437 O   0  0  0  0  0  0  0  0  0  0  0  0
   -0.7234   -1.1408    2.1108 O   0  0  0  0  0  0  0  0  0  0  0  0
  1  2  1  0
  2  3  2  3
  3  4  1  0
  4  5  1  0
  4  6  1  0
  6  7  1  0
  7  8  2  0
  8  9  1  0
  9 10  1  0
  9 11  2  0
 11 12  1  0
 12 13  1  0
 13 14  2  0
 13 15  1  0
 12  6  2  0
M  END
>  <Rank>  (10) 
10

>  <Score>  (10) 
0.8130

>  <Pharma_Score>  (10) 
1.0000

>  <QED>  (10) 
0.8300

>  <MW>  (10) 
270.13

>  <LogP>  (10) 
2.72

>  <PSA>  (10) 
63.3

>  <SA_Score>  (10) 
3.19

>  <HBD>  (10) 
2

>  <HBA>  (10) 
2

>  <Lip_Violations>  (10) 
0

>  <SMILES>  (10) 
CC=CC(N)c1ccc(Br)cc1C(=O)O

$$$$
Candidata_012
     RDKit          3D

 13 14  0  0  0  0  0  0  0  0999 V2000
   -1.8882   -2.1681    0.3662 O   0  0  0  0  0  0  0  0  0  0  0  0
   -1.6006   -1.1181   -0.1724 C   0  0  0  0  0  0  0  0  0  0  0  0
   -2.4264   -0.4800   -1.0176 O   0  0  0  0  0  0  0  0  0  0  0  0
   -0.2975   -0.4408   -0.1115 C   0  0  0  0  0  0  0  0  0  0  0  0
    0.7789   -1.1496   -0.6693 C   0  0  0  0  0  0  0  0  0  0  0  0
    2.0477   -0.5810   -0.6780 C   0  0  0  0  0  0  0  0  0  0  0  0
    3.4967   -1.5254   -1.4383 Br  0  0  0  0  0  0  0  0  0  0  0  0
    2.2553    0.6813   -0.1315 C   0  0  0  0  0  0  0  0  0  0  0  0
    1.1838    1.3768    0.4394 C   0  0  0  0  0  0  0  0  0  0  0  0
   -0.1120    0.8282    0.4697 C   0  0  0  0  0  0  0  0  0  0  0  0
   -1.1095    1.6548    1.1495 C   0  0  0  0  0  0  0  0  0  0  0  0
   -2.3945    1.6465    1.0801 C   0  0  0  0  0  0  0  0  0  0  0  0
   -1.9262    0.9448    2.0841 O   0  0  0  0  0  0  0  0  0  0  0  0
  1  2  2  0
  2  3  1  0
  2  4  1  0
  4  5  1  0
  5  6  2  0
  6  7  1  0
  6  8  1  0
  8  9  2  0
  9 10  1  0
 10 11  1  0
 11 12  2  0
 12 13  1  0
 10  4  2  0
 13 11  1  0
M  CHG  1  12   1
M  END
>  <Rank>  (11) 
12

>  <Score>  (11) 
0.8020

>  <Pharma_Score>  (11) 
1.0000

>  <QED>  (11) 
0.8060

>  <MW>  (11) 
240.03

>  <LogP>  (11) 
2.28

>  <PSA>  (11) 
49.8

>  <SA_Score>  (11) 
3.24

>  <HBD>  (11) 
1

>  <HBA>  (11) 
2

>  <Lip_Violations>  (11) 
0

>  <SMILES>  (11) 
O=C(O)c1cc(Br)ccc1C1=[C+]O1

$$$$
Candidata_013
     RDKit          3D

 20 20  0  0  0  0  0  0  0  0999 V2000
   -4.4121   -2.8000   -0.6308 O   0  0  0  0  0  0  0  0  0  0  0  0
   -3.4523   -2.0557   -0.6815 C   0  0  0  0  0  0  0  0  0  0  0  0
   -2.2980   -2.4032   -1.2738 O   0  0  0  0  0  0  0  0  0  0  0  0
   -3.4316   -0.6460   -0.2575 C   0  0  0  0  0  0  0  0  0  0  0  0
   -4.5469    0.1379   -0.5835 C   0  0  0  0  0  0  0  0  0  0  0  0
   -4.5598    1.4908   -0.2485 C   0  0  0  0  0  0  0  0  0  0  0  0
   -6.0569    2.5531   -0.6986 Br  0  0  0  0  0  0  0  0  0  0  0  0
   -3.4784    2.0697    0.4166 C   0  0  0  0  0  0  0  0  0  0  0  0
   -2.3737    1.2865    0.7600 C   0  0  0  0  0  0  0  0  0  0  0  0
   -2.3481   -0.0756    0.4221 C   0  0  0  0  0  0  0  0  0  0  0  0
   -1.2118   -0.9029    0.8845 C   0  0  0  0  0  0  0  0  0  0  0  0
   -1.4319   -1.9064    1.5520 O   0  0  0  0  0  0  0  0  0  0  0  0
    0.0377   -0.4305    0.5231 N   0  0  0  0  0  0  0  0  0  0  0  0
    1.2050   -1.0504    0.8940 C   0  0  0  0  0  0  0  0  0  0  0  0
    2.4400   -0.6554    0.5520 C   0  0  0  0  0  0  0  0  0  0  0  0
    2.7991    0.4836   -0.2677 C   0  0  0  0  0  0  0  0  0  0  0  0
    4.0355    0.8910   -0.6028 C   0  0  0  0  0  0  0  0  0  0  0  0
    5.2975    0.2906   -0.2221 C   0  0  0  0  0  0  0  0  0  0  0  0
    6.5179    0.7196   -0.5708 C   0  0  0  0  0  0  0  0  0  0  0  0
    6.9580    2.1812   -1.6241 Br  0  0  0  0  0  0  0  0  0  0  0  0
  1  2  2  0
  2  3  1  0
  2  4  1  0
  4  5  1  0
  5  6  2  0
  6  7  1  0
  6  8  1  0
  8  9  2  0
  9 10  1  0
 10 11  1  0
 11 12  2  0
 11 13  1  0
 13 14  1  0
 14 15  2  3
 15 16  1  0
 16 17  2  3
 17 18  1  0
 18 19  2  3
 19 20  1  0
 10  4  2  0
M  END
>  <Rank>  (12) 
13

>  <Score>  (12) 
0.7850

>  <Pharma_Score>  (12) 
1.0000

>  <QED>  (12) 
0.7370

>  <MW>  (12) 
401.05

>  <LogP>  (12) 
3.86

>  <PSA>  (12) 
66.4

>  <SA_Score>  (12) 
3.07

>  <HBD>  (12) 
2

>  <HBA>  (12) 
2

>  <Lip_Violations>  (12) 
0

>  <SMILES>  (12) 
O=C(O)c1cc(Br)ccc1C(=O)NC=CC=CC=CBr

$$$$
Candidata_014
     RDKit          3D

 20 21  0  0  0  0  0  0  0  0999 V2000
    0.8756    2.0685   -0.3442 O   0  0  0  0  0  0  0  0  0  0  0  0
    1.9471    1.7757    0.2099 C   0  0  0  0  0  0  0  0  0  0  0  0
    2.4608    2.7531    1.0942 O   0  0  0  0  0  0  0  0  0  0  0  0
    2.6806    0.5277    0.0100 C   0  0  0  0  0  0  0  0  0  0  0  0
    3.8967    0.3939    0.6781 C   0  0  0  0  0  0  0  0  0  0  0  0
    4.6218   -0.7486    0.4963 C   0  0  0  0  0  0  0  0  0  0  0  0
    6.1956   -0.9064    1.3732 P   0  0  0  0  0  1  0  0  0  0  0  0
    4.1723   -1.7709   -0.3379 C   0  0  0  0  0  0  0  0  0  0  0  0
    2.9685   -1.6495   -1.0057 C   0  0  0  0  0  0  0  0  0  0  0  0
    2.2392   -0.4861   -0.8132 C   0  0  0  0  0  0  0  0  0  0  0  0
    0.9414   -0.3401   -1.5096 C   0  0  0  0  0  0  0  0  0  0  0  0
    0.8478   -0.2676   -2.7504 O   0  0  0  0  0  0  0  0  0  0  0  0
   -0.2372   -0.2838   -0.6808 N   0  0  0  0  0  0  0  0  0  0  0  0
   -1.5376   -0.1390   -1.2249 C   0  0  0  0  0  0  0  0  0  0  0  0
   -2.6248   -0.0787   -0.5032 C   0  0  0  0  0  0  0  0  0  0  0  0
   -2.6278   -0.1539    0.9479 C   0  0  0  0  0  0  0  0  0  0  0  0
   -3.7578   -0.0704    1.6333 C   0  0  0  0  0  0  0  0  0  0  0  0
   -5.0853    0.1054    0.9789 C   0  0  0  0  0  0  0  0  0  0  0  0
   -5.0000    0.1687   -0.4505 N   0  0  0  0  0  0  0  0  0  0  0  0
   -3.9251    0.0919   -1.1536 C   0  0  0  0  0  0  0  0  0  0  0  0
  1  2  2  0
  2  3  1  0
  2  4  1  0
  4  5  1  0
  5  6  2  0
  6  7  1  0
  6  8  1  0
  8  9  2  0
  9 10  1  0
 10 11  1  0
 11 12  2  0
 11 13  1  0
 13 14  1  0
 14 15  2  3
 15 16  1  0
 16 17  2  0
 17 18  1  0
 18 19  1  0
 19 20  2  0
 10  4  2  0
 20 15  1  0
M  CHG  1   7  -1
M  RAD  1   7   2
M  END
>  <Rank>  (13) 
14

>  <Score>  (13) 
0.7820

>  <Pharma_Score>  (13) 
1.0000

>  <QED>  (13) 
0.8300

>  <MW>  (13) 
286.23

>  <LogP>  (13) 
1.67

>  <PSA>  (13) 
78.8

>  <SA_Score>  (13) 
3.96

>  <HBD>  (13) 
2

>  <HBA>  (13) 
3

>  <Lip_Violations>  (13) 
0

>  <SMILES>  (13) 
O=C(O)c1cc([P-])ccc1C(=O)NC=C1C=CCN=C1

$$$$
Candidata_015
     RDKit          3D

 17 17  0  0  0  0  0  0  0  0999 V2000
   -4.2648   -1.5830    2.6424 O   0  0  0  0  0  0  0  0  0  0  0  0
   -3.6243   -0.5469    2.6156 C   0  0  0  0  0  0  0  0  0  0  0  0
   -3.3537    0.0835    1.4676 O   0  0  0  0  0  0  0  0  0  0  0  0
   -3.1430    0.1482    3.8174 C   0  0  0  0  0  0  0  0  0  0  0  0
   -2.1537    1.0494    3.9317 C   0  0  0  0  0  0  0  0  0  0  0  0
   -1.2577    1.5477    2.9032 C   0  0  0  0  0  0  0  0  0  0  0  0
   -1.3056    3.4125    2.6860 Br  0  0  0  0  0  0  0  0  0  0  0  0
   -0.4323    0.7231    2.2303 C   0  0  0  0  0  0  0  0  0  0  0  0
    0.5200    1.0874    1.2010 C   0  0  0  0  0  0  0  0  0  0  0  0
    1.2992    0.1857    0.5825 C   0  0  0  0  0  0  0  0  0  0  0  0
    2.2867    0.5333   -0.4966 C   0  0  0  0  0  0  0  0  0  0  0  0
    1.9785   -0.1668   -1.7985 C   0  0  0  0  0  0  0  0  0  0  0  0
    0.9878    0.3343   -2.6555 C   0  0  0  0  0  0  0  0  0  0  0  0
    0.6908   -0.3182   -3.8530 C   0  0  0  0  0  0  0  0  0  0  0  0
    1.3766   -1.4796   -4.2035 C   0  0  0  0  0  0  0  0  0  0  0  0
    2.3577   -1.9912   -3.3561 C   0  0  0  0  0  0  0  0  0  0  0  0
    2.6563   -1.3403   -2.1577 C   0  0  0  0  0  0  0  0  0  0  0  0
  1  2  2  0
  2  3  1  0
  2  4  1  0
  4  5  2  3
  5  6  1  0
  6  7  1  0
  6  8  2  3
  8  9  1  0
  9 10  2  3
 10 11  1  0
 11 12  1  0
 12 13  2  0
 13 14  1  0
 14 15  2  0
 15 16  1  0
 16 17  2  0
 17 12  1  0
M  END
>  <Rank>  (14) 
15

>  <Score>  (14) 
0.7720

>  <Pharma_Score>  (14) 
1.0000

>  <QED>  (14) 
0.6640

>  <MW>  (14) 
293.16

>  <LogP>  (14) 
3.70

>  <PSA>  (14) 
37.3

>  <SA_Score>  (14) 
2.75

>  <HBD>  (14) 
1

>  <HBA>  (14) 
1

>  <Lip_Violations>  (14) 
0

>  <SMILES>  (14) 
O=C(O)C=CC(Br)=CC=CCc1ccccc1

$$$$
Candidata_016
     RDKit          3D

 14 15  0  0  0  0  0  0  0  0999 V2000
   -3.0918   -0.7940    0.2140 O   0  0  0  0  0  0  0  0  0  0  0  0
   -2.5465    0.2596   -0.0491 C   0  0  0  0  0  0  0  0  0  0  0  0
   -3.2452    1.3069   -0.5224 O   0  0  0  0  0  0  0  0  0  0  0  0
   -1.0924    0.5661    0.0665 C   0  0  0  0  0  0  0  0  0  0  0  0
   -0.7452    1.8843    0.4051 C   0  0  0  0  0  0  0  0  0  0  0  0
    0.5848    2.2228    0.5843 C   0  0  0  0  0  0  0  0  0  0  0  0
    1.0519    3.9950    1.0464 Br  0  0  0  0  0  0  0  0  0  0  0  0
    1.5771    1.2618    0.4348 C   0  0  0  0  0  0  0  0  0  0  0  0
    1.2608   -0.0686    0.0889 C   0  0  0  0  0  0  0  0  0  0  0  0
   -0.0994   -0.4445   -0.1143 C   0  0  0  0  0  0  0  0  0  0  0  0
   -0.5998   -1.8426   -0.4556 C   0  0  0  0  0  0  0  0  0  0  0  0
    0.8159   -2.8612   -1.0823 P   0  0  0  0  0  2  0  0  0  0  0  0
    2.4259   -2.2004   -0.5583 C   0  0  0  0  0  0  0  0  0  0  0  0
    2.4318   -0.9682   -0.0432 C   0  0  0  0  0  0  0  0  0  0  0  0
  1  2  2  0
  2  3  1  0
  2  4  1  0
  4  5  2  0
  5  6  1  0
  6  7  1  0
  6  8  2  0
  8  9  1  0
  9 10  2  0
 10 11  1  0
 11 12  1  0
 12 13  1  0
 13 14  2  0
 10  4  1  0
 14  9  1  0
M  CHG  1  12   1
M  RAD  1  12   3
M  END
>  <Rank>  (15) 
16

>  <Score>  (15) 
0.7710

>  <Pharma_Score>  (15) 
1.0000

>  <QED>  (15) 
0.7920

>  <MW>  (15) 
270.04

>  <LogP>  (15) 
3.58

>  <PSA>  (15) 
37.3

>  <SA_Score>  (15) 
3.91

>  <HBD>  (15) 
1

>  <HBA>  (15) 
1

>  <Lip_Violations>  (15) 
0

>  <SMILES>  (15) 
O=C(O)c1cc(Br)cc2c1C[P+]C=C2

$$$$
Candidata_017
     RDKit          3D

 18 19  0  0  0  0  0  0  0  0999 V2000
   -2.2636    2.3545    0.4077 O   0  0  0  0  0  0  0  0  0  0  0  0
   -2.4241    1.4925   -0.4316 C   0  0  0  0  0  0  0  0  0  0  0  0
   -2.9951    1.7505   -1.6185 O   0  0  0  0  0  0  0  0  0  0  0  0
   -2.0977    0.0685   -0.3338 C   0  0  0  0  0  0  0  0  0  0  0  0
   -1.1715   -0.4744    0.4749 C   0  0  0  0  0  0  0  0  0  0  0  0
   -1.0634   -1.9164    0.6417 C   0  0  0  0  0  0  0  0  0  0  0  0
   -0.8382   -3.0042   -0.8561 Br  0  0  0  0  0  0  0  0  0  0  0  0
   -1.0565   -2.4053    1.8934 C   0  0  0  0  0  0  0  0  0  0  0  0
   -1.2676   -1.5642    3.1149 C   0  0  0  0  0  0  0  0  0  0  0  0
   -0.0459   -0.1727    2.9871 P   0  0  0  0  0  0  0  0  0  0  0  0
   -0.1999    0.3150    1.3143 C   0  0  0  0  0  0  0  0  0  0  0  0
    0.6868    1.3720    0.6485 C   0  0  0  0  0  0  0  0  0  0  0  0
    1.3868    0.8509   -0.5860 C   0  0  0  0  0  0  0  0  0  0  0  0
    1.0734    1.3588   -1.8538 C   0  0  0  0  0  0  0  0  0  0  0  0
    1.7046    0.8556   -2.9923 C   0  0  0  0  0  0  0  0  0  0  0  0
    2.6560   -0.1558   -2.8746 C   0  0  0  0  0  0  0  0  0  0  0  0
    2.9807   -0.6629   -1.6181 C   0  0  0  0  0  0  0  0  0  0  0  0
    2.3516   -0.1611   -0.4784 C   0  0  0  0  0  0  0  0  0  0  0  0
  1  2  2  0
  2  3  1  0
  2  4  1  0
  4  5  2  3
  5  6  1  0
  6  7  1  0
  6  8  2  0
  8  9  1  0
  9 10  1  0
 10 11  2  0
 11 12  1  0
 12 13  1  0
 13 14  2  0
 14 15  1  0
 15 16  2  0
 16 17  1  0
 17 18  2  0
 11  5  1  0
 18 13  1  0
M  END
>  <Rank>  (16) 
17

>  <Score>  (16) 
0.7500

>  <Pharma_Score>  (16) 
1.0000

>  <QED>  (16) 
0.6810

>  <MW>  (16) 
323.13

>  <LogP>  (16) 
3.65

>  <PSA>  (16) 
37.3

>  <SA_Score>  (16) 
3.46

>  <HBD>  (16) 
1

>  <HBA>  (16) 
1

>  <Lip_Violations>  (16) 
0

>  <SMILES>  (16) 
O=C(O)C=C1C(Br)=CCP=C1Cc1ccccc1

$$$$
Candidata_018
     RDKit          3D

 20 20  0  0  0  0  0  0  0  0999 V2000
    6.6067    1.5539   -0.2771 C   0  0  0  0  0  0  0  0  0  0  0  0
    5.9959    0.3832   -0.0505 C   0  0  0  0  0  0  0  0  0  0  0  0
    4.5122    0.1802   -0.0435 C   0  0  0  0  0  0  0  0  0  0  0  0
    4.1979   -0.8312   -1.0425 N   0  0  0  0  0  0  0  0  0  0  0  0
    2.9718   -1.1700   -1.2216 C   0  0  0  0  0  0  0  0  0  0  0  0
    1.7580   -0.6720   -0.5326 C   0  0  0  0  0  0  0  0  0  0  0  0
    0.5685   -1.1691   -0.8879 C   0  0  0  0  0  0  0  0  0  0  0  0
   -0.5983   -0.7511   -0.2922 N   0  0  0  0  0  0  0  0  0  0  0  0
   -1.8442   -1.2178   -0.6631 C   0  0  0  0  0  0  0  0  0  0  0  0
   -2.0163   -2.0591   -1.5429 O   0  0  0  0  0  0  0  0  0  0  0  0
   -3.0389   -0.7157    0.0774 C   0  0  0  0  0  0  0  0  0  0  0  0
   -4.0726   -1.6549    0.2637 C   0  0  0  0  0  0  0  0  0  0  0  0
   -5.2687   -1.3003    0.8936 C   0  0  0  0  0  0  0  0  0  0  0  0
   -5.4518    0.0054    1.3346 C   0  0  0  0  0  0  0  0  0  0  0  0
   -7.0676    0.4929    2.1836 Br  0  0  0  0  0  0  0  0  0  0  0  0
   -4.4516    0.9565    1.1515 C   0  0  0  0  0  0  0  0  0  0  0  0
   -3.2449    0.5994    0.5214 C   0  0  0  0  0  0  0  0  0  0  0  0
   -2.2376    1.6598    0.3753 C   0  0  0  0  0  0  0  0  0  0  0  0
   -1.0798    1.5886    0.7406 O   0  0  0  0  0  0  0  0  0  0  0  0
   -2.7554    2.7492   -0.2112 O   0  0  0  0  0  0  0  0  0  0  0  0
  1  2  2  0
  2  3  1  0
  3  4  1  0
  4  5  2  3
  5  6  1  0
  6  7  2  3
  7  8  1  0
  8  9  1  0
  9 10  2  0
  9 11  1  0
 11 12  1  0
 12 13  2  0
 13 14  1  0
 14 15  1  0
 14 16  2  0
 16 17  1  0
 17 18  1  0
 18 19  2  0
 18 20  1  0
 17 11  2  0
M  END
>  <Rank>  (17) 
18

>  <Score>  (17) 
0.7410

>  <Pharma_Score>  (17) 
1.0000

>  <QED>  (17) 
0.6190

>  <MW>  (17) 
337.17

>  <LogP>  (17) 
2.65

>  <PSA>  (17) 
78.8

>  <SA_Score>  (17) 
3.14

>  <HBD>  (17) 
2

>  <HBA>  (17) 
3

>  <Lip_Violations>  (17) 
0

>  <SMILES>  (17) 
C=CCN=CC=CNC(=O)c1ccc(Br)cc1C(=O)O

$$$$
Candidata_019
     RDKit          3D

  5  4  0  0  0  0  0  0  0  0999 V2000
    0.9408   -0.1750    1.4046 O   0  0  0  0  0  0  0  0  0  0  0  0
    0.5192   -0.1227    0.2625 C   0  0  0  0  0  0  0  0  0  0  0  0
    1.3542   -0.3940   -0.7671 O   0  0  0  0  0  0  0  0  0  0  0  0
   -0.8605    0.2138   -0.2293 C   0  0  0  0  0  0  0  0  0  0  0  0
   -2.0318    0.5973    1.2709 Br  0  0  0  0  0  0  0  0  0  0  0  0
  1  2  2  0
  2  3  1  0
  2  4  1  0
  4  5  1  0
M  END
>  <Rank>  (18) 
19

>  <Score>  (18) 
0.7410

>  <Pharma_Score>  (18) 
1.0000

>  <QED>  (18) 
0.5360

>  <MW>  (18) 
138.95

>  <LogP>  (18) 
0.47

>  <PSA>  (18) 
37.3

>  <SA_Score>  (18) 
2.42

>  <HBD>  (18) 
1

>  <HBA>  (18) 
1

>  <Lip_Violations>  (18) 
0

>  <SMILES>  (18) 
O=C(O)CBr

$$$$
Candidata_020
     RDKit          3D

 18 19  0  0  0  0  0  0  0  0999 V2000
    4.4337    0.7910    2.0973 O   0  0  0  0  0  0  0  0  0  0  0  0
    3.6513    0.5931    1.1707 C   0  0  0  0  0  0  0  0  0  0  0  0
    3.9498    1.0539   -0.2349 C   0  0  0  0  0  0  0  0  0  0  0  0
    4.1562   -0.1328   -1.1224 C   0  0  0  0  0  0  0  0  0  0  0  0
    5.8492   -0.2910   -1.8986 Br  0  0  0  0  0  0  0  0  0  0  0  0
    3.1932   -1.0344   -1.3622 C   0  0  0  0  0  0  0  0  0  0  0  0
    1.8588   -0.9454   -0.8162 C   0  0  0  0  0  0  0  0  0  0  0  0
    1.5272   -0.4587    0.3959 C   0  0  0  0  0  0  0  0  0  0  0  0
    0.0948   -0.5490    0.8434 C   0  0  0  0  0  0  0  0  0  0  0  0
   -0.1633   -1.0138    1.9461 O   0  0  0  0  0  0  0  0  0  0  0  0
   -0.7959   -0.0234   -0.0744 N   0  0  0  0  0  0  0  0  0  0  0  0
   -2.2020    0.0291    0.0329 C   0  0  0  0  0  0  0  0  0  0  0  0
   -2.8994    0.6583   -1.0076 C   0  0  0  0  0  0  0  0  0  0  0  0
   -4.2938    0.7486   -0.9805 C   0  0  0  0  0  0  0  0  0  0  0  0
   -5.0050    0.2090    0.0872 C   0  0  0  0  0  0  0  0  0  0  0  0
   -4.3212   -0.4199    1.1246 C   0  0  0  0  0  0  0  0  0  0  0  0
   -2.9255   -0.5104    1.0977 C   0  0  0  0  0  0  0  0  0  0  0  0
    2.4437   -0.0032    1.3794 O   0  0  0  0  0  0  0  0  0  0  0  0
  1  2  2  0
  2  3  1  0
  3  4  1  0
  4  5  1  0
  4  6  2  0
  6  7  1  0
  7  8  2  0
  8  9  1  0
  9 10  2  0
  9 11  1  0
 11 12  1  0
 12 13  2  0
 13 14  1  0
 14 15  2  0
 15 16  1  0
 16 17  2  0
  8 18  1  0
 18  2  1  0
 17 12  1  0
M  END
>  <Rank>  (19) 
20

>  <Score>  (19) 
0.7250

>  <Pharma_Score>  (19) 
0.7500

>  <QED>  (19) 
0.8550

>  <MW>  (19) 
308.13

>  <LogP>  (19) 
2.73

>  <PSA>  (19) 
55.4

>  <SA_Score>  (19) 
2.79

>  <HBD>  (19) 
1

>  <HBA>  (19) 
3

>  <Lip_Violations>  (19) 
0

>  <SMILES>  (19) 
O=C1CC(Br)=CC=C(C(=O)Nc2ccccc2)O1

$$$$
Candidata_021
     RDKit          3D

 20 21  0  0  0  0  0  0  0  0999 V2000
    2.5022   -1.1924    2.9761 O   0  0  0  0  0  0  0  0  0  0  0  0
    2.6540   -0.8703    1.8534 C   0  0  0  0  0  0  0  0  0  0  0  0
    2.9226   -0.4217    0.5158 C   0  0  0  0  0  0  0  0  0  0  0  0
    4.2663   -0.4469    0.1009 C   0  0  0  0  0  0  0  0  0  0  0  0
    4.6532    0.1311   -1.1079 C   0  0  0  0  0  0  0  0  0  0  0  0
    3.7043    0.7619   -1.9041 C   0  0  0  0  0  0  0  0  0  0  0  0
    2.3661    0.7880   -1.5055 C   0  0  0  0  0  0  0  0  0  0  0  0
    1.9518    0.1647   -0.3168 C   0  0  0  0  0  0  0  0  0  0  0  0
    0.5655    0.2234   -0.0451 N   0  0  0  0  0  0  0  0  0  0  0  0
   -0.1676   -0.7605    0.5865 C   0  0  0  0  0  0  0  0  0  0  0  0
    0.2320   -1.8651    0.9286 O   0  0  0  0  0  0  0  0  0  0  0  0
   -1.5882   -0.4150    0.8349 C   0  0  0  0  0  0  0  0  0  0  0  0
   -2.0116   -0.4532    2.1721 C   0  0  0  0  0  0  0  0  0  0  0  0
   -3.3239   -0.1173    2.5023 C   0  0  0  0  0  0  0  0  0  0  0  0
   -4.2108    0.2509    1.4945 C   0  0  0  0  0  0  0  0  0  0  0  0
   -5.9893    0.7167    1.9361 Br  0  0  0  0  0  0  0  0  0  0  0  0
   -3.8031    0.2715    0.1582 C   0  0  0  0  0  0  0  0  0  0  0  0
   -2.4868   -0.0771   -0.1948 C   0  0  0  0  0  0  0  0  0  0  0  0
   -2.0943   -0.0944   -1.6443 C   0  0  0  0  0  0  0  0  0  0  0  0
   -1.2870    1.0479   -1.9092 O   0  0  0  0  0  0  0  0  0  0  0  0
  1  2  2  0
  2  3  1  0
  3  4  2  0
  4  5  1  0
  5  6  2  0
  6  7  1  0
  7  8  2  0
  8  9  1  0
  9 10  1  0
 10 11  2  0
 10 12  1  0
 12 13  1  0
 13 14  2  0
 14 15  1  0
 15 16  1  0
 15 17  2  0
 17 18  1  0
 18 19  1  0
 19 20  1  0
  8  3  1  0
 18 12  2  0
M  CHG  1   2   1
M  END
>  <Rank>  (20) 
21

>  <Score>  (20) 
0.7170

>  <Pharma_Score>  (20) 
0.7500

>  <QED>  (20) 
0.8460

>  <MW>  (20) 
333.16

>  <LogP>  (20) 
2.65

>  <PSA>  (20) 
66.4

>  <SA_Score>  (20) 
2.91

>  <HBD>  (20) 
2

>  <HBA>  (20) 
3

>  <Lip_Violations>  (20) 
0

>  <SMILES>  (20) 
O=[C+]c1ccccc1NC(=O)c1ccc(Br)cc1CO

$$$$
Candidata_022
     RDKit          3D

 17 17  0  0  0  0  0  0  0  0999 V2000
    1.6365   -0.0189    2.5511 O   0  0  0  0  0  0  0  0  0  0  0  0
    1.5531   -1.0878    1.9710 C   0  0  0  0  0  0  0  0  0  0  0  0
    2.6447   -1.7920    1.6446 O   0  0  0  0  0  0  0  0  0  0  0  0
    0.2838   -1.7522    1.6454 C   0  0  0  0  0  0  0  0  0  0  0  0
    0.0497   -2.6948    0.7177 C   0  0  0  0  0  0  0  0  0  0  0  0
    0.9805   -3.2609   -0.2409 C   0  0  0  0  0  0  0  0  0  0  0  0
    1.3066   -5.0996   -0.0289 Br  0  0  0  0  0  0  0  0  0  0  0  0
    1.5522   -2.5821   -1.2518 C   0  0  0  0  0  0  0  0  0  0  0  0
    1.3073   -1.2043   -1.5081 C   0  0  0  0  0  0  0  0  0  0  0  0
    1.0685   -0.0393   -1.6740 C   0  0  0  0  0  0  0  0  0  0  0  0
    0.7373    1.3848   -1.8136 C   0  0  0  0  0  0  0  0  0  0  0  0
   -0.4597    1.7600   -0.9729 C   0  0  0  0  0  0  0  0  0  0  0  0
   -1.7460    1.7847   -1.5308 C   0  0  0  0  0  0  0  0  0  0  0  0
   -2.8532    2.1060   -0.7432 C   0  0  0  0  0  0  0  0  0  0  0  0
   -2.6876    2.3975    0.6096 C   0  0  0  0  0  0  0  0  0  0  0  0
   -1.4157    2.3658    1.1775 C   0  0  0  0  0  0  0  0  0  0  0  0
   -0.3072    2.0477    0.3916 C   0  0  0  0  0  0  0  0  0  0  0  0
  1  2  2  0
  2  3  1  0
  2  4  1  0
  4  5  2  3
  5  6  1  0
  6  7  1  0
  6  8  2  3
  8  9  1  0
  9 10  3  0
 10 11  1  0
 11 12  1  0
 12 13  2  0
 13 14  1  0
 14 15  2  0
 15 16  1  0
 16 17  2  0
 17 12  1  0
M  END
>  <Rank>  (21) 
22

>  <Score>  (21) 
0.7170

>  <Pharma_Score>  (21) 
1.0000

>  <QED>  (21) 
0.5270

>  <MW>  (21) 
291.14

>  <LogP>  (21) 
3.15

>  <PSA>  (21) 
37.3

>  <SA_Score>  (21) 
2.93

>  <HBD>  (21) 
1

>  <HBA>  (21) 
1

>  <Lip_Violations>  (21) 
0

>  <SMILES>  (21) 
O=C(O)C=CC(Br)=CC#CCc1ccccc1

$$$$
Candidata_023
     RDKit          3D

  7  6  0  0  0  0  0  0  0  0999 V2000
    1.3014   -1.3986    0.1780 O   0  0  0  0  0  0  0  0  0  0  0  0
    1.4753   -0.2102    0.0009 C   0  0  0  0  0  0  0  0  0  0  0  0
    2.6977    0.3443    0.0344 O   0  0  0  0  0  0  0  0  0  0  0  0
    0.4691    0.8247   -0.2854 C   0  0  0  0  0  0  0  0  0  0  0  0
   -0.8621    0.6455   -0.2687 C   0  0  0  0  0  0  0  0  0  0  0  0
   -1.6234   -0.5968    0.0610 C   0  0  0  0  0  0  0  0  0  0  0  0
   -2.9161   -0.1474    1.4518 Br  0  0  0  0  0  0  0  0  0  0  0  0
  1  2  2  0
  2  3  1  0
  2  4  1  0
  4  5  2  3
  5  6  1  0
  6  7  1  0
M  END
>  <Rank>  (22) 
23

>  <Score>  (22) 
0.7040

>  <Pharma_Score>  (22) 
1.0000

>  <QED>  (22) 
0.4890

>  <MW>  (22) 
164.99

>  <LogP>  (22) 
1.02

>  <PSA>  (22) 
37.3

>  <SA_Score>  (22) 
2.93

>  <HBD>  (22) 
1

>  <HBA>  (22) 
1

>  <Lip_Violations>  (22) 
0

>  <SMILES>  (22) 
O=C(O)C=CCBr

$$$$
Candidata_024
     RDKit          3D

 18 19  0  0  0  0  0  0  0  0999 V2000
   -3.8857    1.3004    0.8399 C   0  0  0  0  0  0  0  0  0  0  0  0
   -3.0430    0.8485   -0.3523 C   0  0  0  0  0  0  0  0  0  0  0  0
   -3.6763   -0.2974   -1.0781 C   0  0  0  0  0  0  0  0  0  0  0  0
   -3.5941   -1.6035   -0.7966 C   0  0  0  0  0  0  0  0  0  0  0  0
   -2.9048   -2.2526    0.3263 C   0  0  0  0  0  0  0  0  0  0  0  0
   -3.3468   -3.3183    0.7473 O   0  0  0  0  0  0  0  0  0  0  0  0
   -1.7628   -1.7168    0.8127 O   0  0  0  0  0  0  0  0  0  0  0  0
   -1.0698   -0.5254    0.5056 C   0  0  0  0  0  0  0  0  0  0  0  0
    0.3761   -0.5036    0.9179 C   0  0  0  0  0  0  0  0  0  0  0  0
    0.6926   -0.8746    2.0407 O   0  0  0  0  0  0  0  0  0  0  0  0
    1.2135   -0.0782   -0.0964 N   0  0  0  0  0  0  0  0  0  0  0  0
    2.6141    0.0765   -0.0425 C   0  0  0  0  0  0  0  0  0  0  0  0
    3.2589    0.4799   -1.2197 C   0  0  0  0  0  0  0  0  0  0  0  0
    4.6443    0.6607   -1.2489 C   0  0  0  0  0  0  0  0  0  0  0  0
    5.3987    0.4410   -0.1000 C   0  0  0  0  0  0  0  0  0  0  0  0
    4.7667    0.0414    1.0749 C   0  0  0  0  0  0  0  0  0  0  0  0
    3.3799   -0.1396    1.1043 C   0  0  0  0  0  0  0  0  0  0  0  0
   -1.6189    0.6082    0.0373 C   0  0  0  0  0  0  0  0  0  0  0  0
  1  2  1  0
  2  3  1  0
  3  4  2  0
  4  5  1  0
  5  6  2  0
  5  7  1  0
  7  8  1  0
  8  9  1  0
  9 10  2  0
  9 11  1  0
 11 12  1  0
 12 13  2  0
 13 14  1  0
 14 15  2  0
 15 16  1  0
 16 17  2  0
  8 18  2  0
 18  2  1  0
 17 12  1  0
M  END
>  <Rank>  (23) 
24

>  <Score>  (23) 
0.6990

>  <Pharma_Score>  (23) 
0.7500

>  <QED>  (23) 
0.8100

>  <MW>  (23) 
243.26

>  <LogP>  (23) 
2.26

>  <PSA>  (23) 
55.4

>  <SA_Score>  (23) 
3.05

>  <HBD>  (23) 
1

>  <HBA>  (23) 
3

>  <Lip_Violations>  (23) 
0

>  <SMILES>  (23) 
CC1C=CC(=O)OC(C(=O)Nc2ccccc2)=C1

$$$$
Candidata_025
     RDKit          3D

 10 10  0  0  0  0  0  0  0  0999 V2000
    3.2470    0.7619   -1.6095 O   0  0  0  0  0  0  0  0  0  0  0  0
    2.8303   -0.0192   -0.7565 C   0  0  0  0  0  0  0  0  0  0  0  0
    2.2522    0.4230    0.5704 C   0  0  0  0  0  0  0  0  0  0  0  0
    1.1244   -0.4243    0.9609 N   0  0  0  0  0  0  0  0  0  0  0  0
   -0.1526   -0.1961    0.4338 C   0  0  0  0  0  0  0  0  0  0  0  0
   -1.2373   -0.8643    1.0239 C   0  0  0  0  0  0  0  0  0  0  0  0
   -2.5348   -0.7429    0.5174 C   0  0  0  0  0  0  0  0  0  0  0  0
   -2.7687    0.0342   -0.6112 C   0  0  0  0  0  0  0  0  0  0  0  0
   -1.7034    0.6758   -1.2345 C   0  0  0  0  0  0  0  0  0  0  0  0
   -0.4060    0.5498   -0.7232 C   0  0  0  0  0  0  0  0  0  0  0  0
  1  2  2  0
  2  3  1  0
  3  4  1  0
  4  5  1  0
  5  6  2  0
  6  7  1  0
  7  8  2  0
  8  9  1  0
  9 10  2  0
 10  5  1  0
M  END
>  <Rank>  (24) 
25

>  <Score>  (24) 
0.6840

>  <Pharma_Score>  (24) 
0.7500

>  <QED>  (24) 
0.6330

>  <MW>  (24) 
135.17

>  <LogP>  (24) 
1.30

>  <PSA>  (24) 
29.1

>  <SA_Score>  (24) 
1.88

>  <HBD>  (24) 
1

>  <HBA>  (24) 
2

>  <Lip_Violations>  (24) 
0

>  <SMILES>  (24) 
O=CCNc1ccccc1

$$$$
Candidata_026
     RDKit          3D

 24 25  0  0  0  0  0  0  0  0999 V2000
   -3.8665   -0.4712   -1.8071 O   0  0  0  0  0  0  0  0  0  0  0  0
   -4.5188    0.2991   -1.1334 C   0  0  0  0  0  0  0  0  0  0  0  0
   -5.5221    1.0250   -1.6531 O   0  0  0  0  0  0  0  0  0  0  0  0
   -4.3789    0.6120    0.2988 C   0  0  0  0  0  0  0  0  0  0  0  0
   -3.4320    0.1142    1.1100 C   0  0  0  0  0  0  0  0  0  0  0  0
   -2.3597   -0.7983    0.7550 C   0  0  0  0  0  0  0  0  0  0  0  0
   -2.6322   -2.5456    1.4078 Br  0  0  0  0  0  0  0  0  0  0  0  0
   -1.2697   -0.4262    0.0460 C   0  0  0  0  0  0  0  0  0  0  0  0
   -1.0261    0.8587   -0.4023 O   0  0  0  0  0  0  0  0  0  0  0  0
   -0.1904   -1.3522   -0.3252 C   0  0  0  0  0  0  0  0  0  0  0  0
   -0.3393   -2.1477   -1.4713 C   0  0  0  0  0  0  0  0  0  0  0  0
    0.6691   -3.0401   -1.8392 C   0  0  0  0  0  0  0  0  0  0  0  0
    0.4531   -4.1103   -3.3829 Br  0  0  0  0  0  0  0  0  0  0  0  0
    1.8341   -3.1547   -1.0795 C   0  0  0  0  0  0  0  0  0  0  0  0
    1.9979   -2.3635    0.0578 C   0  0  0  0  0  0  0  0  0  0  0  0
    0.9930   -1.4574    0.4225 C   0  0  0  0  0  0  0  0  0  0  0  0
    1.1991   -0.6450    1.6392 C   0  0  0  0  0  0  0  0  0  0  0  0
    0.7636   -1.1119    2.6927 O   0  0  0  0  0  0  0  0  0  0  0  0
    1.9014    0.5717    1.5264 N   0  0  0  0  0  0  0  0  0  0  0  0
    2.1675    1.3075    2.6775 C   0  0  0  0  0  0  0  0  0  0  0  0
    2.8301    2.4730    2.6930 C   0  0  0  0  0  0  0  0  0  0  0  0
    3.3524    3.1032    1.4439 C   0  0  0  0  0  0  0  0  0  0  0  0
    3.0230    2.2793    0.2417 C   0  0  0  0  0  0  0  0  0  0  0  0
    2.3519    1.1210    0.3298 C   0  0  0  0  0  0  0  0  0  0  0  0
  1  2  2  0
  2  3  1  0
  2  4  1  0
  4  5  2  3
  5  6  1  0
  6  7  1  0
  6  8  2  3
  8  9  1  0
  8 10  1  0
 10 11  1  0
 11 12  2  0
 12 13  1  0
 12 14  1  0
 14 15  2  0
 15 16  1  0
 16 17  1  0
 17 18  2  0
 17 19  1  0
 19 20  1  0
 20 21  2  0
 21 22  1  0
 22 23  1  0
 23 24  2  0
 16 10  2  0
 24 19  1  0
M  END
>  <Rank>  (25) 
26

>  <Score>  (25) 
0.6480

>  <Pharma_Score>  (25) 
1.0000

>  <QED>  (25) 
0.3960

>  <MW>  (25) 
455.10

>  <LogP>  (25) 
4.58

>  <PSA>  (25) 
77.8

>  <SA_Score>  (25) 
3.52

>  <HBD>  (25) 
2

>  <HBA>  (25) 
3

>  <Lip_Violations>  (25) 
0

>  <SMILES>  (25) 
O=C(O)C=CC(Br)=C(O)c1cc(Br)ccc1C(=O)N1C=CCC=C1

$$$$
Candidata_027
     RDKit          3D

 20 20  0  0  0  0  0  0  0  0999 V2000
    6.1521    0.5496    2.7179 O   0  0  0  0  0  0  0  0  0  0  0  0
    5.5887   -0.0196    1.8002 C   0  0  0  0  0  0  0  0  0  0  0  0
    4.6476    0.5912    1.0637 O   0  0  0  0  0  0  0  0  0  0  0  0
    5.8591   -1.3989    1.3978 C   0  0  0  0  0  0  0  0  0  0  0  0
    5.2340   -1.9970    0.4291 C   0  0  0  0  0  0  0  0  0  0  0  0
    4.4284   -2.7897   -0.8327 S   0  0  0  0  0  3  0  0  0  0  0  0
    2.8100   -2.3245   -0.3751 C   0  0  0  0  0  0  0  0  0  0  0  0
    1.8485   -3.6262    0.5707 Br  0  0  0  0  0  0  0  0  0  0  0  0
    2.3268   -1.1188   -0.7289 C   0  0  0  0  0  0  0  0  0  0  0  0
    1.0133   -0.5798   -0.4296 C   0  0  0  0  0  0  0  0  0  0  0  0
    0.6355    0.6473   -0.8211 C   0  0  0  0  0  0  0  0  0  0  0  0
   -0.6821    1.2497   -0.4808 C   0  0  0  0  0  0  0  0  0  0  0  0
   -0.7169    2.4418   -0.2035 O   0  0  0  0  0  0  0  0  0  0  0  0
   -1.7390    0.3740   -0.5858 N   0  0  0  0  0  0  0  0  0  0  0  0
   -3.0983    0.6369   -0.3158 C   0  0  0  0  0  0  0  0  0  0  0  0
   -4.0096   -0.4020   -0.5490 C   0  0  0  0  0  0  0  0  0  0  0  0
   -5.3736   -0.2240   -0.3024 C   0  0  0  0  0  0  0  0  0  0  0  0
   -5.8395    0.9949    0.1819 C   0  0  0  0  0  0  0  0  0  0  0  0
   -4.9413    2.0324    0.4194 C   0  0  0  0  0  0  0  0  0  0  0  0
   -3.5759    1.8543    0.1726 C   0  0  0  0  0  0  0  0  0  0  0  0
  1  2  2  0
  2  3  1  0
  2  4  1  0
  4  5  2  0
  5  6  2  0
  6  7  1  0
  7  8  1  0
  7  9  2  3
  9 10  1  0
 10 11  2  3
 11 12  1  0
 12 13  2  0
 12 14  1  0
 14 15  1  0
 15 16  2  0
 16 17  1  0
 17 18  2  0
 18 19  1  0
 19 20  2  0
 20 15  1  0
M  CHG  1   6  -1
M  END
>  <Rank>  (26) 
27

>  <Score>  (26) 
0.6400

>  <Pharma_Score>  (26) 
1.0000

>  <QED>  (26) 
0.3700

>  <MW>  (26) 
353.22

>  <LogP>  (26) 
2.54

>  <PSA>  (26) 
66.4

>  <SA_Score>  (26) 
3.48

>  <HBD>  (26) 
2

>  <HBA>  (26) 
3

>  <Lip_Violations>  (26) 
0

>  <SMILES>  (26) 
O=C(O)C=C=[S-]C(Br)=CC=CC(=O)Nc1ccccc1

$$$$
Candidata_028
     RDKit          3D

 18 19  0  0  0  0  0  0  0  0999 V2000
    2.3219    2.4285    0.4930 O   0  0  0  0  0  0  0  0  0  0  0  0
    2.8133    1.3768    0.1135 C   0  0  0  0  0  0  0  0  0  0  0  0
    3.8035    0.6226    0.9186 C   0  0  0  0  0  0  0  0  0  0  0  0
    3.9985   -0.6326    0.6486 C   0  0  0  0  0  0  0  0  0  0  0  0
    3.9162   -1.8325    0.1537 C   0  0  0  0  0  0  0  0  0  0  0  0
    2.9326   -2.2098   -0.9292 C   0  0  0  0  0  0  0  0  0  0  0  0
    1.6325   -1.4331   -0.9354 C   0  0  0  0  0  0  0  0  0  0  0  0
    1.4840   -0.0905   -0.9760 C   0  0  0  0  0  0  0  0  0  0  0  0
    0.1106    0.5150   -1.0578 C   0  0  0  0  0  0  0  0  0  0  0  0
   -0.1433    1.3154   -1.9483 O   0  0  0  0  0  0  0  0  0  0  0  0
   -0.7249    0.0780   -0.0479 N   0  0  0  0  0  0  0  0  0  0  0  0
   -2.0751    0.4292    0.1572 C   0  0  0  0  0  0  0  0  0  0  0  0
   -2.7135   -0.1129    1.2811 C   0  0  0  0  0  0  0  0  0  0  0  0
   -4.0525    0.1810    1.5528 C   0  0  0  0  0  0  0  0  0  0  0  0
   -4.7667    1.0199    0.7022 C   0  0  0  0  0  0  0  0  0  0  0  0
   -4.1410    1.5630   -0.4172 C   0  0  0  0  0  0  0  0  0  0  0  0
   -2.8008    1.2687   -0.6893 C   0  0  0  0  0  0  0  0  0  0  0  0
    2.5817    0.7769   -1.0936 O   0  0  0  0  0  0  0  0  0  0  0  0
  1  2  2  0
  2  3  1  0
  3  4  2  0
  4  5  2  0
  5  6  1  0
  6  7  1  0
  7  8  2  3
  8  9  1  0
  9 10  2  0
  9 11  1  0
 11 12  1  0
 12 13  2  0
 13 14  1  0
 14 15  2  0
 15 16  1  0
 16 17  2  0
  8 18  1  0
 18  2  1  0
 17 12  1  0
M  END
>  <Rank>  (27) 
28

>  <Score>  (27) 
0.6300

>  <Pharma_Score>  (27) 
0.7500

>  <QED>  (27) 
0.6370

>  <MW>  (27) 
241.25

>  <LogP>  (27) 
2.17

>  <PSA>  (27) 
55.4

>  <SA_Score>  (27) 
3.27

>  <HBD>  (27) 
1

>  <HBA>  (27) 
3

>  <Lip_Violations>  (27) 
0

>  <SMILES>  (27) 
O=C1C=C=CCC=C(C(=O)Nc2ccccc2)O1

$$$$
Candidata_029
     RDKit          3D

 11 10  0  0  0  0  0  0  0  0999 V2000
   -4.0218   -0.2855    0.8839 C   0  0  0  0  0  0  0  0  0  0  0  0
   -2.8235   -0.4565    0.3120 C   0  0  0  0  0  0  0  0  0  0  0  0
   -1.6381    0.2286    0.7733 C   0  0  0  0  0  0  0  0  0  0  0  0
   -0.3904    0.1480    0.2865 C   0  0  0  0  0  0  0  0  0  0  0  0
    0.0231   -0.6841   -0.8738 C   0  0  0  0  0  0  0  0  0  0  0  0
    1.1966   -0.8748   -1.3817 N   0  0  0  0  0  0  0  0  0  0  0  0
    2.2802   -0.2210   -0.8341 C   0  0  0  0  0  0  0  0  0  0  0  0
    2.3323    0.9956   -0.6773 O   0  0  0  0  0  0  0  0  0  0  0  0
    3.5264   -1.0620   -0.4219 C   0  0  0  0  0  0  0  0  0  0  0  0
    3.4788   -2.2151   -0.0352 O   0  0  0  0  0  0  0  0  0  0  0  0
    4.6859   -0.3979   -0.5256 O   0  0  0  0  0  0  0  0  0  0  0  0
  1  2  2  0
  2  3  1  0
  3  4  2  3
  4  5  1  0
  5  6  2  3
  6  7  1  0
  7  8  2  0
  7  9  1  0
  9 10  2  0
  9 11  1  0
M  END
>  <Rank>  (28) 
29

>  <Score>  (28) 
0.6200

>  <Pharma_Score>  (28) 
1.0000

>  <QED>  (28) 
0.3550

>  <MW>  (28) 
153.14

>  <LogP>  (28) 
0.41

>  <PSA>  (28) 
66.7

>  <SA_Score>  (28) 
3.85

>  <HBD>  (28) 
1

>  <HBA>  (28) 
2

>  <Lip_Violations>  (28) 
0

>  <SMILES>  (28) 
C=CC=CC=NC(=O)C(=O)O

$$$$
Candidata_030
     RDKit          3D

 15 14  0  0  0  0  0  0  0  0999 V2000
   -3.9397   -0.3749   -3.5338 O   0  0  0  0  0  0  0  0  0  0  0  0
   -3.4257   -1.4596   -3.2920 C   0  0  0  0  0  0  0  0  0  0  0  0
   -2.1064   -1.5565   -2.6387 C   0  0  0  0  0  0  0  0  0  0  0  0
   -1.5691   -2.7574   -2.3804 C   0  0  0  0  0  0  0  0  0  0  0  0
   -0.2887   -2.9877   -1.7479 C   0  0  0  0  0  0  0  0  0  0  0  0
    0.5011   -2.0432   -1.3278 C   0  0  0  0  0  0  0  0  0  0  0  0
    1.2948   -1.1009   -0.9082 C   0  0  0  0  0  0  0  0  0  0  0  0
    0.9317   -0.2588    0.2114 C   0  0  0  0  0  0  0  0  0  0  0  0
    1.6460    0.7552    0.7425 C   0  0  0  0  0  0  0  0  0  0  0  0
    3.3308    1.2643    0.0709 Br  0  0  0  0  0  0  0  0  0  0  0  0
    1.1006    1.4886    1.8836 C   0  0  0  0  0  0  0  0  0  0  0  0
    1.6537    2.5263    2.5324 C   0  0  0  0  0  0  0  0  0  0  0  0
    0.9423    3.1312    3.6662 C   0  0  0  0  0  0  0  0  0  0  0  0
   -0.1311    2.7970    4.1284 O   0  0  0  0  0  0  0  0  0  0  0  0
    1.6526    4.1542    4.1653 O   0  0  0  0  0  0  0  0  0  0  0  0
  1  2  2  0
  2  3  1  0
  3  4  2  3
  4  5  1  0
  5  6  2  0
  6  7  2  0
  7  8  1  0
  8  9  2  3
  9 10  1  0
  9 11  1  0
 11 12  2  3
 12 13  1  0
 13 14  2  0
 13 15  1  0
M  END
>  <Rank>  (29) 
30

>  <Score>  (29) 
0.6080

>  <Pharma_Score>  (29) 
1.0000

>  <QED>  (29) 
0.3610

>  <MW>  (29) 
269.09

>  <LogP>  (29) 
2.37

>  <PSA>  (29) 
54.4

>  <SA_Score>  (29) 
4.22

>  <HBD>  (29) 
1

>  <HBA>  (29) 
2

>  <Lip_Violations>  (29) 
0

>  <SMILES>  (29) 
O=CC=CC=C=CC=C(Br)C=CC(=O)O

$$$$
Candidata_031
     RDKit          3D

 16 17  0  0  0  0  0  0  0  0999 V2000
    3.0591    1.1664    2.3471 O   0  0  0  0  0  0  0  0  0  0  0  0
    2.3977    0.8919    1.3428 C   0  0  0  0  0  0  0  0  0  0  0  0
    2.9175    1.1682   -0.0472 C   0  0  0  0  0  0  0  0  0  0  0  0
    3.5263   -0.1002   -0.5525 C   0  0  0  0  0  0  0  0  0  0  0  0
    5.3095    0.0468   -1.1158 Br  0  0  0  0  0  0  0  0  0  0  0  0
    2.8907   -1.2816   -0.6040 C   0  0  0  0  0  0  0  0  0  0  0  0
    1.5098   -1.5488   -0.2666 C   0  0  0  0  0  0  0  0  0  0  0  0
    0.6910   -0.9104    0.5943 C   0  0  0  0  0  0  0  0  0  0  0  0
   -0.7269   -1.4367    0.7878 C   0  0  0  0  0  0  0  0  0  0  0  0
   -1.7903   -0.5022    0.2561 C   0  0  0  0  0  0  0  0  0  0  0  0
   -2.6388    0.1864    1.1348 C   0  0  0  0  0  0  0  0  0  0  0  0
   -3.6137    1.0554    0.6419 C   0  0  0  0  0  0  0  0  0  0  0  0
   -3.7511    1.2443   -0.7319 C   0  0  0  0  0  0  0  0  0  0  0  0
   -2.9148    0.5644   -1.6149 C   0  0  0  0  0  0  0  0  0  0  0  0
   -1.9393   -0.3050   -1.1246 C   0  0  0  0  0  0  0  0  0  0  0  0
    1.0067    0.2954    1.4550 C   0  0  0  0  0  0  0  0  0  0  0  0
  1  2  2  0
  2  3  1  0
  3  4  1  0
  4  5  1  0
  4  6  2  0
  6  7  1  0
  7  8  2  0
  8  9  1  0
  9 10  1  0
 10 11  2  0
 11 12  1  0
 12 13  2  0
 13 14  1  0
 14 15  2  0
  8 16  1  0
 16  2  1  0
 15 10  1  0
M  END
>  <Rank>  (30) 
31

>  <Score>  (30) 
0.5930

>  <Pharma_Score>  (30) 
0.5000

>  <QED>  (30) 
0.8030

>  <MW>  (30) 
277.16

>  <LogP>  (30) 
3.80

>  <PSA>  (30) 
17.1

>  <SA_Score>  (30) 
2.83

>  <HBD>  (30) 
0

>  <HBA>  (30) 
1

>  <Lip_Violations>  (30) 
0

>  <SMILES>  (30) 
O=C1CC(Br)=CC=C(Cc2ccccc2)C1

$$$$
Candidata_032
     RDKit          3D

 15 16  0  0  0  0  0  0  0  0999 V2000
    3.8355    1.4310    0.1078 O   0  0  0  0  0  0  0  0  0  0  0  0
    3.3042    0.5590    0.7818 C   0  0  0  0  0  0  0  0  0  0  0  0
    2.1581   -0.4996   -0.0068 S   0  0  0  0  0  4  0  0  0  0  0  0
    2.0295   -1.6562    1.1303 O   0  0  0  0  0  0  0  0  0  0  0  0
    0.6127    0.2882   -0.1328 C   0  0  0  0  0  0  0  0  0  0  0  0
    0.5475    1.6694   -0.3295 C   0  0  0  0  0  0  0  0  0  0  0  0
   -0.7024    2.2985   -0.4661 C   0  0  0  0  0  0  0  0  0  0  0  0
   -0.7742    4.1722   -0.7221 Br  0  0  0  0  0  0  0  0  0  0  0  0
   -1.8947    1.5694   -0.4254 C   0  0  0  0  0  0  0  0  0  0  0  0
   -1.8088    0.1989   -0.2513 C   0  0  0  0  0  0  0  0  0  0  0  0
   -0.5716   -0.4264   -0.1101 C   0  0  0  0  0  0  0  0  0  0  0  0
   -0.8612   -1.8550    0.0348 C   0  0  0  0  0  0  0  0  0  0  0  0
   -0.0646   -2.7599    0.1907 O   0  0  0  0  0  0  0  0  0  0  0  0
   -2.3305   -2.0053   -0.0290 C   0  0  0  0  0  0  0  0  0  0  0  0
   -2.8686   -0.7899   -0.1943 C   0  0  0  0  0  0  0  0  0  0  0  0
  1  2  2  0
  2  3  1  0
  3  4  1  0
  3  5  1  0
  5  6  2  0
  6  7  1  0
  7  8  1  0
  7  9  2  0
  9 10  1  0
 10 11  2  0
 11 12  1  0
 12 13  2  0
 12 14  1  0
 14 15  2  0
 11  5  1  0
 15 10  1  0
M  END
>  <Rank>  (31) 
32

>  <Score>  (31) 
0.5880

>  <Pharma_Score>  (31) 
0.7500

>  <QED>  (31) 
0.6490

>  <MW>  (31) 
287.13

>  <LogP>  (31) 
2.68

>  <PSA>  (31) 
54.4

>  <SA_Score>  (31) 
4.42

>  <HBD>  (31) 
2

>  <HBA>  (31) 
3

>  <Lip_Violations>  (31) 
0

>  <SMILES>  (31) 
O=C[SH](O)c1cc(Br)cc2c1C(=O)C=C2

$$$$
Candidata_033
     RDKit          3D

 13 12  0  0  0  0  0  0  0  0999 V2000
    5.6719    1.3264    0.1088 O   0  0  0  0  0  0  0  0  0  0  0  0
    4.8084    0.6865    0.7281 C   0  0  0  0  0  0  0  0  0  0  0  0
    3.4852    1.3808    1.2125 B   0  0  0  0  0  3  0  0  0  0  0  0
    2.4376    1.2636    0.2645 C   0  0  0  0  0  0  0  0  0  0  0  0
    1.4900    1.1442   -0.6193 C   0  0  0  0  0  0  0  0  0  0  0  0
    0.7423   -0.0984   -0.6219 C   0  0  0  0  0  0  0  0  0  0  0  0
   -0.5917   -0.0460   -0.3960 C   0  0  0  0  0  0  0  0  0  0  0  0
   -1.2709    1.7024   -0.1060 Br  0  0  0  0  0  0  0  0  0  0  0  0
   -1.3152   -1.2720   -0.4008 C   0  0  0  0  0  0  0  0  0  0  0  0
   -2.5694   -1.5580   -0.2224 C   0  0  0  0  0  0  0  0  0  0  0  0
   -3.7125   -0.7388    0.0498 C   0  0  0  0  0  0  0  0  0  0  0  0
   -4.8572   -1.3126    0.1808 O   0  0  0  0  0  0  0  0  0  0  0  0
   -3.7566    0.6292    0.1960 O   0  0  0  0  0  0  0  0  0  0  0  0
  1  2  2  0
  2  3  1  0
  3  4  2  0
  4  5  2  0
  5  6  1  0
  6  7  2  3
  7  8  1  0
  7  9  1  0
  9 10  2  3
 10 11  1  0
 11 12  2  0
 11 13  1  0
M  CHG  1   3  -1
M  RAD  1   3   2
M  END
>  <Rank>  (32) 
33

>  <Score>  (32) 
0.5800

>  <Pharma_Score>  (32) 
1.0000

>  <QED>  (32) 
0.3420

>  <MW>  (32) 
240.85

>  <LogP>  (32) 
0.76

>  <PSA>  (32) 
54.4

>  <SA_Score>  (32) 
4.75

>  <HBD>  (32) 
1

>  <HBA>  (32) 
2

>  <Lip_Violations>  (32) 
0

>  <SMILES>  (32) 
O=C[B-]=C=CC=C(Br)C=CC(=O)O

$$$$
Candidata_034
     RDKit          3D

  5  4  0  0  0  0  0  0  0  0999 V2000
    2.6452   -0.3526   -0.6843 C   0  0  0  0  0  0  0  0  0  0  0  0
    1.1683   -0.0387   -0.3244 C   0  0  0  0  0  0  0  0  0  0  0  0
   -0.2089    0.2466    0.0082 C   0  0  0  0  0  0  0  0  0  0  0  0
   -0.5835    1.3010    0.4963 O   0  0  0  0  0  0  0  0  0  0  0  0
   -1.0749   -0.7537   -0.2629 O   0  0  0  0  0  0  0  0  0  0  0  0
  1  2  3  0
  2  3  1  0
  3  4  2  0
  3  5  1  0
M  CHG  1   1   1
M  END
>  <Rank>  (33) 
34

>  <Score>  (33) 
0.5760

>  <Pharma_Score>  (33) 
1.0000

>  <QED>  (33) 
0.3120

>  <MW>  (33) 
69.04

>  <LogP>  (33) 
-0.34

>  <PSA>  (33) 
37.3

>  <SA_Score>  (33) 
4.59

>  <HBD>  (33) 
1

>  <HBA>  (33) 
1

>  <Lip_Violations>  (33) 
0

>  <SMILES>  (33) 
[C+]#CC(=O)O

$$$$
Candidata_035
     RDKit          3D

 13 14  0  0  0  0  0  0  0  0999 V2000
    2.7747   -2.3652   -0.5594 O   0  0  0  0  0  0  0  0  0  0  0  0
    1.9353   -1.5489   -0.1896 C   0  0  0  0  0  0  0  0  0  0  0  0
    2.2507   -0.4126    0.7455 C   0  0  0  0  0  0  0  0  0  0  0  0
    2.1260    0.8748   -0.0063 C   0  0  0  0  0  0  0  0  0  0  0  0
    3.7173    1.8234   -0.2668 Br  0  0  0  0  0  0  0  0  0  0  0  0
    0.9560    1.3495   -0.4583 C   0  0  0  0  0  0  0  0  0  0  0  0
   -0.3156    0.6458   -0.2651 C   0  0  0  0  0  0  0  0  0  0  0  0
   -1.4683    1.4178   -0.0577 C   0  0  0  0  0  0  0  0  0  0  0  0
   -2.7184    0.8125    0.1080 C   0  0  0  0  0  0  0  0  0  0  0  0
   -2.8381   -0.5745    0.0539 C   0  0  0  0  0  0  0  0  0  0  0  0
   -1.7085   -1.3581   -0.1665 C   0  0  0  0  0  0  0  0  0  0  0  0
   -0.4593   -0.7476   -0.3151 C   0  0  0  0  0  0  0  0  0  0  0  0
    0.6044   -1.6473   -0.5960 O   0  0  0  0  0  0  0  0  0  0  0  0
  1  2  2  0
  2  3  1  0
  3  4  1  0
  4  5  1  0
  4  6  2  0
  6  7  1  0
  7  8  2  0
  8  9  1  0
  9 10  2  0
 10 11  1  0
 11 12  2  0
 12 13  1  0
 13  2  1  0
 12  7  1  0
M  END
>  <Rank>  (34) 
35

>  <Score>  (34) 
0.4950

>  <Pharma_Score>  (34) 
0.5000

>  <QED>  (34) 
0.5140

>  <MW>  (34) 
239.07

>  <LogP>  (34) 
2.73

>  <PSA>  (34) 
26.3

>  <SA_Score>  (34) 
2.74

>  <HBD>  (34) 
0

>  <HBA>  (34) 
2

>  <Lip_Violations>  (34) 
0

>  <SMILES>  (34) 
O=C1CC(Br)=Cc2ccccc2O1

$$$$
Candidata_036
     RDKit          3D

  6  5  0  0  0  0  0  0  0  0999 V2000
   -1.9132    0.1898    0.4994 C   0  0  0  0  0  0  0  0  0  0  0  0
   -0.9950    0.4045   -0.6966 C   0  0  0  0  0  0  0  0  0  0  0  0
    0.4743    0.1718   -0.4714 C   0  0  0  0  0  0  0  0  0  0  0  0
    1.0631   -0.1953    0.6776 C   0  0  0  0  0  0  0  0  0  0  0  0
    2.4007   -0.4054    0.9225 O   0  0  0  0  0  0  0  0  0  0  0  0
    3.1054   -0.3862   -0.3475 O   0  0  0  0  0  0  0  0  0  0  0  0
  1  2  1  0
  2  3  1  0
  3  4  2  3
  4  5  1  0
  5  6  1  0
M  END
>  <Rank>  (35) 
36

>  <Score>  (35) 
0.4950

>  <Pharma_Score>  (35) 
0.7500

>  <QED>  (35) 
0.3140

>  <MW>  (35) 
88.11

>  <LogP>  (35) 
1.40

>  <PSA>  (35) 
29.5

>  <SA_Score>  (35) 
3.80

>  <HBD>  (35) 
1

>  <HBA>  (35) 
2

>  <Lip_Violations>  (35) 
0

>  <SMILES>  (35) 
CCC=COO

$$$$
Candidata_037
     RDKit          3D

  4  3  0  0  0  0  0  0  0  0999 V2000
   -1.5422    0.2880    1.0937 O   0  0  0  0  0  0  0  0  0  0  0  0
   -0.8510    0.2471    0.0788 C   0  0  0  0  0  0  0  0  0  0  0  0
    0.5316   -0.3267    0.0507 C   0  0  0  0  0  0  0  0  0  0  0  0
    1.6574    0.9431   -0.8861 Br  0  0  0  0  0  0  0  0  0  0  0  0
  1  2  2  0
  2  3  1  0
  3  4  1  0
M  END
>  <Rank>  (36) 
37

>  <Score>  (36) 
0.4170

>  <Pharma_Score>  (36) 
0.5000

>  <QED>  (36) 
0.3680

>  <MW>  (36) 
122.95

>  <LogP>  (36) 
0.58

>  <PSA>  (36) 
17.1

>  <SA_Score>  (36) 
3.43

>  <HBD>  (36) 
0

>  <HBA>  (36) 
1

>  <Lip_Violations>  (36) 
0

>  <SMILES>  (36) 
O=CCBr

$$$$
Candidata_038
     RDKit          3D

  6  6  0  0  0  0  0  0  0  0999 V2000
   -0.2801    1.1436    0.1751 C   0  0  0  0  0  0  0  0  0  0  0  0
   -1.2223    0.2512   -0.1476 C   0  0  0  0  0  0  0  0  0  0  0  0
   -0.9179   -1.0554   -0.4679 N   0  0  0  0  0  0  0  0  0  0  0  0
    0.3259   -1.6115   -0.0985 O   0  0  0  0  0  0  0  0  0  0  0  0
    1.3059   -0.6437    0.0538 C   0  0  0  0  0  0  0  0  0  0  0  0
    1.0798    0.6710    0.1945 C   0  0  0  0  0  0  0  0  0  0  0  0
  1  2  2  0
  2  3  1  0
  3  4  1  0
  4  5  1  0
  5  6  2  0
  6  1  1  0
M  END
>  <Rank>  (37) 
38

>  <Score>  (37) 
0.4120

>  <Pharma_Score>  (37) 
0.5000

>  <QED>  (37) 
0.4610

>  <MW>  (37) 
83.09

>  <LogP>  (37) 
0.55

>  <PSA>  (37) 
21.3

>  <SA_Score>  (37) 
4.35

>  <HBD>  (37) 
1

>  <HBA>  (37) 
2

>  <Lip_Violations>  (37) 
0

>  <SMILES>  (37) 
C1=CNOC=C1

$$$$
Candidata_039
     RDKit          3D

  3  2  0  0  0  0  0  0  0  0999 V2000
   -0.6451   -0.0716    0.0467 C   0  0  0  0  0  0  0  0  0  0  0  0
    0.8401    0.0868   -0.0619 C   0  0  0  0  0  0  0  0  0  0  0  0
    1.4167    1.1615    0.0682 O   0  0  0  0  0  0  0  0  0  0  0  0
  1  2  1  0
  2  3  2  0
M  END
>  <Rank>  (38) 
39

>  <Score>  (38) 
0.3150

>  <Pharma_Score>  (38) 
0.2500

>  <QED>  (38) 
0.3550

>  <MW>  (38) 
44.05

>  <LogP>  (38) 
0.21

>  <PSA>  (38) 
17.1

>  <SA_Score>  (38) 
3.04

>  <HBD>  (38) 
0

>  <HBA>  (38) 
1

>  <Lip_Violations>  (38) 
0

>  <SMILES>  (38) 
CC=O

$$$$
