UP4_crystal.pdb
 OpenBabel06032615403D

 21 21  0  0  1  0  0  0  0  0999 V2000
  -32.9970   40.3350   14.2890 C   0  0  1  0  0  0  0  0  0  0  0  0
  -34.2280   40.1420   13.3890 C   0  0  0  0  0  0  0  0  0  0  0  0
  -30.4420   40.6670   14.0340 C   0  0  0  0  0  0  0  0  0  0  0  0
  -29.3880   39.1650   12.3240 C   0  0  0  0  0  0  0  0  0  0  0  0
  -27.9670   40.4030   13.9290 C   0  0  0  0  0  0  0  0  0  0  0  0
  -31.7580   37.7270   17.6320 C   0  0  0  0  0  0  0  0  0  0  0  0
  -31.1440   36.6430   18.2340 C   0  0  0  0  0  0  0  0  0  0  0  0
  -31.5920   35.3510   18.0450 C   0  0  0  0  0  0  0  0  0  0  0  0
  -32.6970   35.1670   17.2390 C   0  0  0  0  0  0  0  0  0  0  0  0
  -29.7600   36.9140   19.2660 Cl  0  0  0  0  0  0  0  0  0  0  0  0
  -33.2030   33.5560   16.8810 Cl  0  0  0  0  0  0  0  0  0  0  0  0
  -33.3580   36.2200   16.6450 C   0  0  0  0  0  0  0  0  0  0  0  0
  -32.8680   37.5100   16.8170 C   0  0  0  0  0  0  0  0  0  0  0  0
  -33.4670   38.6250   16.0210 C   0  0  0  0  0  0  0  0  0  0  0  0
  -34.6230   39.0030   16.2250 O   0  0  0  0  0  0  0  0  0  0  0  0
  -32.6820   39.1460   15.0640 N   0  0  0  0  0  0  0  0  0  0  0  0
  -34.6930   41.1760   12.8460 O   0  0  0  0  0  0  0  0  0  0  0  0
  -34.6750   38.9770   13.2450 O   0  0  0  0  0  0  0  0  0  0  0  0
  -31.8300   40.7130   13.3950 C   0  0  0  0  0  0  0  0  0  0  0  0
  -29.2430   40.4690   13.1030 C   0  0  0  0  0  0  0  0  0  0  0  0
  -29.1430   41.6370   12.1290 C   0  0  0  0  0  0  0  0  0  0  0  0
  1 19  1  6  0  0  0
  1 16  1  0  0  0  0
  2  1  1  0  0  0  0
  4 20  1  0  0  0  0
  6  7  1  0  0  0  0
  7 10  1  0  0  0  0
  8  7  2  0  0  0  0
  9  8  1  0  0  0  0
 11  9  1  0  0  0  0
 12 13  1  0  0  0  0
 12  9  2  0  0  0  0
 13  6  2  0  0  0  0
 14 15  2  0  0  0  0
 14 13  1  0  0  0  0
 16 14  1  0  0  0  0
 17  2  2  0  0  0  0
 18  2  1  0  0  0  0
 19  3  1  0  0  0  0
 20  5  1  0  0  0  0
 20  3  1  0  0  0  0
 21 20  1  0  0  0  0
M  END
$$$$
