2ET_crystal.pdb
 OpenBabel06032615283D

 23 24  0  0  1  0  0  0  0  0999 V2000
  -32.9190   38.5640   15.8490 C   0  0  0  0  0  0  0  0  0  0  0  0
  -32.4500   34.5860   17.5840 C   0  0  0  0  0  0  0  0  0  0  0  0
  -33.8860   36.3900   16.8000 C   0  0  0  0  0  0  0  0  0  0  0  0
  -36.2430   34.8880   17.5020 C   0  0  0  0  0  0  0  0  0  0  0  0
  -34.9620   34.3210   17.7060 C   0  0  0  0  0  0  0  0  0  0  0  0
  -34.3890   39.3790   13.4310 O   0  0  0  0  0  0  0  0  0  0  0  0
  -33.6450   40.3830   13.6010 C   0  0  0  0  0  0  0  0  0  0  0  0
  -34.0230   41.5210   13.2100 O   0  0  0  0  0  0  0  0  0  0  0  0
  -32.3380   40.2280   14.2510 C   0  0  2  0  0  0  0  0  0  0  0  0
  -31.2460   40.6040   13.2690 C   0  0  0  0  0  0  0  0  0  0  0  0
  -29.8870   41.0400   13.8510 C   0  0  0  0  0  0  0  0  0  0  0  0
  -28.7120   40.7440   12.9720 C   0  0  0  0  0  0  0  0  0  0  0  0
  -29.6910   40.6290   15.2510 C   0  0  0  0  0  0  0  0  0  0  0  0
  -32.1740   38.8570   14.6630 N   0  0  0  0  0  0  0  0  0  0  0  0
  -32.7520   37.1470   16.4670 C   0  0  0  0  0  0  0  0  0  0  0  0
  -31.4680   36.6270   16.6910 C   0  0  0  0  0  0  0  0  0  0  0  0
  -30.3660   37.3570   16.3690 O   0  0  0  0  0  0  0  0  0  0  0  0
  -31.3220   35.3440   17.2500 C   0  0  0  0  0  0  0  0  0  0  0  0
  -33.7460   35.1010   17.3620 C   0  0  0  0  0  0  0  0  0  0  0  0
  -35.2170   36.9530   16.5580 O   0  0  0  0  0  0  0  0  0  0  0  0
  -36.3720   36.2430   16.9520 C   0  0  0  0  0  0  0  0  0  0  0  0
  -37.4660   36.7510   16.8370 O   0  0  0  0  0  0  0  0  0  0  0  0
  -34.8850   32.9250   18.2730 C   0  0  0  0  0  0  0  0  0  0  0  0
  1 15  1  0  0  0  0
  3 19  2  0  0  0  0
  4  5  2  0  0  0  0
  5 23  1  0  0  0  0
  6  7  1  0  0  0  0
  7  9  1  0  0  0  0
  8  7  2  0  0  0  0
  9 10  1  6  0  0  0
  9 14  1  0  0  0  0
 10 11  1  0  0  0  0
 11 13  1  0  0  0  0
 12 11  1  0  0  0  0
 14  1  1  0  0  0  0
 15 16  2  0  0  0  0
 15  3  1  0  0  0  0
 16 18  1  0  0  0  0
 17 16  1  0  0  0  0
 18  2  2  0  0  0  0
 19  2  1  0  0  0  0
 19  5  1  0  0  0  0
 20  3  1  0  0  0  0
 20 21  1  0  0  0  0
 21  4  1  0  0  0  0
 22 21  2  0  0  0  0
M  END
$$$$
