UOY_crystal.pdb
 OpenBabel06032615313D

 25 26  0  0  1  0  0  0  0  0999 V2000
  -33.1690   39.4270   16.0500 C   0  0  0  0  0  0  0  0  0  0  0  0
  -33.2110   38.0390   16.6130 C   0  0  0  0  0  0  0  0  0  0  0  0
  -34.5860   36.3470   17.6350 C   0  0  0  0  0  0  0  0  0  0  0  0
  -34.8650   33.8010   18.6190 C   0  0  0  0  0  0  0  0  0  0  0  0
  -37.1270   33.0330   18.4190 C   0  0  0  0  0  0  0  0  0  0  0  0
  -37.2710   33.0980   19.7880 C   0  0  0  0  0  0  0  0  0  0  0  0
  -36.2110   33.4980   20.5820 C   0  0  0  0  0  0  0  0  0  0  0  0
  -34.9980   33.8490   20.0060 C   0  0  0  0  0  0  0  0  0  0  0  0
  -32.1560   37.1330   16.6430 C   0  0  0  0  0  0  0  0  0  0  0  0
  -29.7470   41.2230   13.7370 C   0  0  0  0  0  0  0  0  0  0  0  0
  -28.9170   41.7010   12.5780 C   0  0  0  0  0  0  0  0  0  0  0  0
  -33.9650   42.0770   12.9210 O   0  0  0  0  0  0  0  0  0  0  0  0
  -33.6730   40.9780   13.4560 C   0  0  0  0  0  0  0  0  0  0  0  0
  -34.3940   39.9460   13.4330 O   0  0  0  0  0  0  0  0  0  0  0  0
  -32.3350   40.8830   14.2220 C   0  0  2  0  0  0  0  0  0  0  0  0
  -31.1670   40.8890   13.2310 C   0  0  0  0  0  0  0  0  0  0  0  0
  -29.7520   42.3280   14.7650 C   0  0  0  0  0  0  0  0  0  0  0  0
  -29.0560   39.9970   14.3250 C   0  0  0  0  0  0  0  0  0  0  0  0
  -32.2940   39.6670   15.0520 N   0  0  0  0  0  0  0  0  0  0  0  0
  -33.9490   40.2960   16.4690 O   0  0  0  0  0  0  0  0  0  0  0  0
  -32.2700   35.8680   17.1250 N   0  0  0  0  0  0  0  0  0  0  0  0
  -33.4690   35.5080   17.5910 C   0  0  0  0  0  0  0  0  0  0  0  0
  -34.4340   37.6190   17.1330 C   0  0  0  0  0  0  0  0  0  0  0  0
  -33.6600   34.2210   18.0120 O   0  0  0  0  0  0  0  0  0  0  0  0
  -35.9260   33.3790   17.8270 C   0  0  0  0  0  0  0  0  0  0  0  0
  1 20  2  0  0  0  0
  1  2  1  0  0  0  0
  2  9  2  0  0  0  0
  2 23  1  0  0  0  0
  4  8  1  0  0  0  0
  5  6  2  0  0  0  0
  6  7  1  0  0  0  0
  8  7  2  0  0  0  0
  9 21  1  0  0  0  0
 10 18  1  0  0  0  0
 10 17  1  0  0  0  0
 11 10  1  0  0  0  0
 12 13  2  0  0  0  0
 13 15  1  0  0  0  0
 14 13  1  0  0  0  0
 15 16  1  6  0  0  0
 15 19  1  0  0  0  0
 16 10  1  0  0  0  0
 19  1  1  0  0  0  0
 21 22  2  0  0  0  0
 22  3  1  0  0  0  0
 22 24  1  0  0  0  0
 23  3  2  0  0  0  0
 24  4  1  0  0  0  0
 25  5  1  0  0  0  0
 25  4  2  0  0  0  0
M  END
$$$$
