Q9Y_crystal.pdb
 OpenBabel06032615413D

 15 15  0  0  1  0  0  0  0  0999 V2000
  -13.5750  -75.5650   33.6390 C   0  0  0  0  0  0  0  0  0  0  0  0
   -9.0950  -78.8010   29.9540 C   0  0  0  0  0  0  0  0  0  0  0  0
  -10.0210  -79.9310   30.4820 C   0  0  0  0  0  0  0  0  0  0  0  0
   -9.2000  -81.0480   31.1570 C   0  0  0  0  0  0  0  0  0  0  0  0
  -11.1350  -79.3260   31.4450 C   0  0  0  0  0  0  0  0  0  0  0  0
  -11.6150  -80.2450   32.5390 C   0  0  0  0  0  0  0  0  0  0  0  0
  -10.4990  -78.6180   35.5020 C   0  0  0  0  0  0  0  0  0  0  0  0
  -11.3730  -78.7150   34.4340 C   0  0  2  0  0  0  0  0  0  0  0  0
  -12.5810  -77.7860   34.1050 C   0  0  0  0  0  0  0  0  0  0  0  0
  -11.0130  -79.7940   33.7230 N   0  0  0  0  0  0  0  0  0  0  0  0
   -9.9430  -80.3410   34.3120 N   0  0  0  0  0  0  0  0  0  0  0  0
   -9.6350  -79.6270   35.4050 N   0  0  0  0  0  0  0  0  0  0  0  0
  -12.4150  -76.3510   33.9410 N   0  0  0  0  0  0  0  0  0  0  0  0
  -10.4900  -77.6560   36.5100 O   0  0  0  0  0  0  0  0  0  0  0  0
  -13.7130  -78.2720   33.9840 O   0  0  0  0  0  0  0  0  0  0  0  0
  1 13  1  0  0  0  0
  2  3  1  0  0  0  0
  3  4  1  0  0  0  0
  3  5  1  0  0  0  0
  5  6  1  0  0  0  0
  6 10  1  0  0  0  0
  7 14  2  0  0  0  0
  8  9  1  1  0  0  0
  8  7  1  0  0  0  0
 10 11  1  0  0  0  0
 10  8  1  0  0  0  0
 11 12  1  0  0  0  0
 12  7  2  0  0  0  0
 13  9  1  0  0  0  0
 15  9  2  0  0  0  0
M  END
$$$$
