UMJ_crystal.pdb
 OpenBabel06032615213D

 19 20  0  0  0  0  0  0  0  0999 V2000
  -32.9640    3.8020   18.3320 C   0  0  0  0  0  0  0  0  0  0  0  0
  -34.3120    4.0950   18.3840 C   0  0  0  0  0  0  0  0  0  0  0  0
  -34.7070    2.5410   16.5970 C   0  0  0  0  0  0  0  0  0  0  0  0
  -30.3970    3.0060   13.4900 C   0  0  0  0  0  0  0  0  0  0  0  0
  -32.6000    2.9190   13.4290 C   0  0  0  0  0  0  0  0  0  0  0  0
  -34.0460    3.0700   13.1140 C   0  0  0  0  0  0  0  0  0  0  0  0
  -28.9360    3.2930   13.1900 C   0  0  0  0  0  0  0  0  0  0  0  0
  -28.4390    2.3310   12.1160 C   0  0  0  0  0  0  0  0  0  0  0  0
  -28.7760    4.7210   12.6730 C   0  0  0  0  0  0  0  0  0  0  0  0
  -34.7780    2.0720   13.2960 O   0  0  0  0  0  0  0  0  0  0  0  0
  -34.4220    4.1840   12.6920 O   0  0  0  0  0  0  0  0  0  0  0  0
  -31.5220    3.5130   12.8250 C   0  0  0  0  0  0  0  0  0  0  0  0
  -28.0880    3.1140   14.4520 C   0  0  0  0  0  0  0  0  0  0  0  0
  -30.7390    2.1590   14.4540 N   0  0  0  0  0  0  0  0  0  0  0  0
  -32.1040    2.1190   14.4110 N   0  0  0  0  0  0  0  0  0  0  0  0
  -32.8100    1.3570   15.4420 C   0  0  0  0  0  0  0  0  0  0  0  0
  -33.3500    2.2530   16.5250 C   0  0  0  0  0  0  0  0  0  0  0  0
  -35.1860    3.4570   17.5200 C   0  0  0  0  0  0  0  0  0  0  0  0
  -32.4880    2.8820   17.4140 C   0  0  0  0  0  0  0  0  0  0  0  0
  1  2  1  0  0  0  0
  3 18  1  0  0  0  0
  4 14  2  0  0  0  0
  5 15  1  0  0  0  0
  6 10  1  0  0  0  0
  6  5  1  0  0  0  0
  7  4  1  0  0  0  0
  7 13  1  0  0  0  0
  8  7  1  0  0  0  0
  9  7  1  0  0  0  0
 11  6  2  0  0  0  0
 12  5  2  0  0  0  0
 12  4  1  0  0  0  0
 15 14  1  0  0  0  0
 15 16  1  0  0  0  0
 16 17  1  0  0  0  0
 17  3  2  0  0  0  0
 17 19  1  0  0  0  0
 18  2  2  0  0  0  0
 19  1  2  0  0  0  0
M  END
$$$$
