2QJ_crystal.pdb
 OpenBabel06032614243D

 23 24  0  0  0  0  0  0  0  0999 V2000
  -29.7770   39.7990   14.3930 C   0  0  0  0  0  0  0  0  0  0  0  0
  -31.3400   40.5770   12.7670 C   0  0  0  0  0  0  0  0  0  0  0  0
  -33.8020   40.1420   13.0420 C   0  0  0  0  0  0  0  0  0  0  0  0
  -28.8810   41.0290   12.4330 C   0  0  0  0  0  0  0  0  0  0  0  0
  -33.9810   39.4970   16.0620 O   0  0  0  0  0  0  0  0  0  0  0  0
  -33.1670   38.7700   15.5400 C   0  0  0  0  0  0  0  0  0  0  0  0
  -33.1430   37.3690   15.7220 N   0  0  0  0  0  0  0  0  0  0  0  0
  -34.0670   36.6280   16.4980 C   0  0  0  0  0  0  0  0  0  0  0  0
  -35.2570   37.1840   16.9510 C   0  0  0  0  0  0  0  0  0  0  0  0
  -36.1560   36.4390   17.6930 C   0  0  0  0  0  0  0  0  0  0  0  0
  -35.8030   35.1230   17.9610 C   0  0  0  0  0  0  0  0  0  0  0  0
  -34.5990   34.5950   17.5000 C   0  0  0  0  0  0  0  0  0  0  0  0
  -34.2420   33.1610   17.8140 C   0  0  0  0  0  0  0  0  0  0  0  0
  -33.7610   35.3490   16.7820 N   0  0  0  0  0  4  0  0  0  0  0  0
  -32.0850   39.3730   14.6920 C   0  0  0  0  0  0  0  0  0  0  0  0
  -30.7920   39.2570   15.1360 C   0  0  0  0  0  0  0  0  0  0  0  0
  -30.0440   40.4660   13.2230 C   0  0  0  0  0  0  0  0  0  0  0  0
  -32.3700   40.0340   13.5160 C   0  0  0  0  0  0  0  0  0  0  0  0
  -34.1990   41.2060   12.4930 O   0  0  0  0  0  0  0  0  0  0  0  0
  -34.5830   39.1580   13.1800 O   0  0  0  0  0  0  0  0  0  0  0  0
  -27.8450   41.3290   13.2350 F   0  0  0  0  0  0  0  0  0  0  0  0
  -29.2390   42.0980   11.7010 F   0  0  0  0  0  0  0  0  0  0  0  0
  -28.4960   40.0420   11.6240 F   0  0  0  0  0  0  0  0  0  0  0  0
  1 16  1  0  0  0  0
  2 17  1  0  0  0  0
  2 18  2  0  0  0  0
  3 20  1  0  0  0  0
  3 18  1  0  0  0  0
  4 17  1  0  0  0  0
  4 21  1  0  0  0  0
  6  7  1  0  0  0  0
  6  5  2  0  0  0  0
  7  8  1  0  0  0  0
  8 14  2  0  0  0  0
  8  9  1  0  0  0  0
  9 10  2  0  0  0  0
 10 11  1  0  0  0  0
 12 13  1  0  0  0  0
 12 11  1  0  0  0  0
 14 12  2  0  0  0  0
 15 16  2  0  0  0  0
 15  6  1  0  0  0  0
 17  1  2  0  0  0  0
 18 15  1  0  0  0  0
 19  3  2  0  0  0  0
 22  4  1  0  0  0  0
 23  4  1  0  0  0  0
M  END
$$$$
